AeroDyn airfoil file Created with QBlade v0.963 64bit on 03.01.2019 at 14:40:16 Compatible with AeroDyn v13.0.
Polar "T1_Re0.360_M0.00_N9.0 360 M" on Foil "T1_Re0.360_M0.00_N9.0" :: generated by QBlade
1              Number of airfoil tables in this file
0              Table ID parameter
14.90          Stall angle (deg)
0              No longer used, enter zero
0              No longer used, enter zero
0              No longer used, enter zero
-2.21          Angle of attack for zero Cn for linear Cn curve (deg)
5.99079        Cn slope for zero lift for linear Cn curve (1/rad)
-0.7876        Cn at stall value for positive angle of attack for linear Cn curve
-0.9224        Cn at stall value for negative angle of attack for linear Cn curve
-0.10          Angle of attack for minimum CD (deg)
0.0082         Minimum CD value
   -180.00   -0.0653    0.0060
   -179.00    0.0119    0.0065
   -178.00    0.0794    0.0081
   -177.00    0.1332    0.0106
   -176.00    0.1726    0.0142
   -175.00    0.2007    0.0188
   -174.00    0.2220    0.0244
   -173.00    0.2400    0.0311
   -172.00    0.2572    0.0387
   -171.00    0.2747    0.0473
   -170.00    0.2929    0.0568
   -169.00    0.3118    0.0673
   -168.00    0.3313    0.0788
   -167.00    0.3511    0.0912
   -166.00    0.3711    0.1045
   -165.00    0.3910    0.1187
   -164.00    0.4108    0.1338
   -163.00    0.4303    0.1498
   -162.00    0.4493    0.1666
   -161.00    0.4677    0.1842
   -160.00    0.4856    0.2026
   -159.00    0.5027    0.2218
   -158.00    0.5192    0.2417
   -157.00    0.5348    0.2623
   -156.00    0.5496    0.2837
   -155.00    0.5636    0.3057
   -154.00    0.5766    0.3284
   -153.00    0.5888    0.3517
   -152.00    0.6000    0.3756
   -151.00    0.6103    0.4000
   -150.00    0.6196    0.4250
   -149.00    0.6280    0.4504
   -148.00    0.6354    0.4764
   -147.00    0.6419    0.5027
   -146.00    0.6474    0.5295
   -145.00    0.6519    0.5566
   -144.00    0.6555    0.5841
   -143.00    0.6581    0.6119
   -142.00    0.6598    0.6400
   -141.00    0.6606    0.6682
   -140.00    0.6604    0.6967
   -139.00    0.6593    0.7254
   -138.00    0.6573    0.7542
   -137.00    0.6545    0.7830
   -136.00    0.6507    0.8120
   -135.00    0.6461    0.8409
   -134.00    0.6407    0.8699
   -133.00    0.6345    0.8988
   -132.00    0.6274    0.9276
   -131.00    0.6196    0.9563
   -130.00    0.6110    0.9849
   -129.00    0.6017    1.0133
   -128.00    0.5917    1.0414
   -127.00    0.5810    1.0694
   -126.00    0.5696    1.0970
   -125.00    0.5575    1.1243
   -124.00    0.5449    1.1512
   -123.00    0.5316    1.1778
   -122.00    0.5178    1.2040
   -121.00    0.5034    1.2297
   -120.00    0.4885    1.2549
   -119.00    0.4730    1.2796
   -118.00    0.4571    1.3038
   -117.00    0.4408    1.3274
   -116.00    0.4240    1.3504
   -115.00    0.4068    1.3728
   -114.00    0.3892    1.3946
   -113.00    0.3702    1.4156
   -112.00    0.3520    1.4360
   -111.00    0.3334    1.4556
   -110.00    0.3146    1.4745
   -109.00    0.2954    1.4926
   -108.00    0.2760    1.5099
   -107.00    0.2564    1.5264
   -106.00    0.2366    1.5421
   -105.00    0.2167    1.5569
   -104.00    0.1965    1.5709
   -103.00    0.1763    1.5839
   -102.00    0.1559    1.5961
   -101.00    0.1354    1.6073
   -100.00    0.1148    1.6176
    -99.00    0.0942    1.6270
    -98.00    0.0736    1.6354
    -97.00    0.0529    1.6428
    -96.00    0.0323    1.6493
    -95.00    0.0117    1.6548
    -94.00   -0.0089    1.6593
    -93.00   -0.0295    1.6628
    -92.00   -0.0499    1.6653
    -91.00   -0.0702    1.6668
    -90.00   -0.0905    1.6673
    -89.00   -0.1106    1.6668
    -88.00   -0.1305    1.6653
    -87.00   -0.1503    1.6627
    -86.00   -0.1699    1.6592
    -85.00   -0.1893    1.6547
    -84.00   -0.2085    1.6493
    -83.00   -0.2275    1.6428
    -82.00   -0.2462    1.6353
    -81.00   -0.2646    1.6269
    -80.00   -0.2828    1.6176
    -79.00   -0.3007    1.6073
    -78.00   -0.3183    1.5960
    -77.00   -0.3355    1.5839
    -76.00   -0.3524    1.5708
    -75.00   -0.3690    1.5569
    -74.00   -0.3852    1.5420
    -73.00   -0.4010    1.5264
    -72.00   -0.4164    1.5099
    -71.00   -0.4314    1.4925
    -70.00   -0.4460    1.4744
    -69.00   -0.4602    1.4555
    -68.00   -0.4739    1.4359
    -67.00   -0.4872    1.4155
    -66.00   -0.4999    1.3944
    -65.00   -0.5122    1.3727
    -64.00   -0.5240    1.3503
    -63.00   -0.5353    1.3273
    -62.00   -0.5460    1.3036
    -61.00   -0.5563    1.2794
    -60.00   -0.5659    1.2547
    -59.00   -0.5750    1.2295
    -58.00   -0.5836    1.2038
    -57.00   -0.5915    1.1776
    -56.00   -0.5989    1.1510
    -55.00   -0.6056    1.1240
    -54.00   -0.6118    1.0967
    -53.00   -0.6173    1.0691
    -52.00   -0.6222    1.0411
    -51.00   -0.6264    1.0130
    -50.00   -0.6300    0.9846
    -49.00   -0.6329    0.9560
    -48.00   -0.6352    0.9272
    -47.00   -0.6368    0.8984
    -46.00   -0.6378    0.8694
    -45.00   -0.6380    0.8405
    -44.00   -0.6376    0.8115
    -43.00   -0.6364    0.7825
    -42.00   -0.6346    0.7536
    -41.00   -0.6321    0.7247
    -40.00   -0.6289    0.6961
    -39.00   -0.6250    0.6675
    -38.00   -0.6204    0.6392
    -37.00   -0.6151    0.6111
    -36.00   -0.6091    0.5832
    -35.00   -0.6024    0.5557
    -34.00   -0.5951    0.5284
    -33.00   -0.5871    0.5016
    -32.00   -0.5785    0.4751
    -31.00   -0.5693    0.4490
    -30.00   -0.5594    0.4234
    -29.00   -0.5490    0.3983
    -28.00   -0.5381    0.3737
    -27.00   -0.5268    0.3496
    -26.00   -0.5150    0.3261
    -25.00   -0.5030    0.3031
    -24.00   -0.4907    0.2807
    -23.00   -0.4785    0.2589
    -22.00   -0.4664    0.2378
    -21.00   -0.4548    0.2172
    -20.00   -0.4441    0.1973
    -19.00   -0.4348    0.1780
    -18.00   -0.4278    0.1592
    -17.00   -0.4241    0.1409
    -16.00   -0.4255    0.1230
    -15.00   -0.4340    0.1055
    -14.00   -0.4524    0.0882
    -13.00   -0.4834    0.0711
    -12.00   -0.5273    0.0545
    -11.00   -0.5775    0.0392
    -10.00   -0.9542    0.0232
     -9.90   -0.9530    0.0223
     -9.80   -0.9447    0.0217
     -9.70   -0.9322    0.0213
     -9.60   -0.9189    0.0210
     -9.50   -0.9052    0.0208
     -9.40   -0.8913    0.0206
     -9.30   -0.8771    0.0203
     -9.20   -0.8626    0.0201
     -9.10   -0.8485    0.0200
     -9.00   -0.8357    0.0198
     -8.90   -0.8223    0.0196
     -8.80   -0.8083    0.0195
     -8.70   -0.7938    0.0194
     -8.60   -0.7831    0.0187
     -8.50   -0.7697    0.0183
     -8.40   -0.7554    0.0181
     -8.30   -0.7406    0.0179
     -8.20   -0.7255    0.0177
     -8.10   -0.7101    0.0175
     -8.00   -0.6949    0.0174
     -7.90   -0.6846    0.0172
     -7.80   -0.6717    0.0171
     -7.70   -0.6597    0.0167
     -7.60   -0.6468    0.0164
     -7.50   -0.6325    0.0161
     -7.40   -0.6174    0.0160
     -7.30   -0.6020    0.0158
     -7.20   -0.5862    0.0157
     -7.10   -0.5699    0.0156
     -7.00   -0.5549    0.0152
     -6.90   -0.5390    0.0150
     -6.80   -0.5226    0.0148
     -6.70   -0.5133    0.0147
     -6.60   -0.5015    0.0146
     -6.50   -0.4880    0.0144
     -6.40   -0.4748    0.0141
     -6.30   -0.4607    0.0139
     -6.20   -0.4462    0.0138
     -6.10   -0.4314    0.0137
     -6.00   -0.4174    0.0134
     -5.90   -0.4033    0.0132
     -5.80   -0.3889    0.0131
     -5.70   -0.3743    0.0130
     -5.60   -0.3681    0.0128
     -5.50   -0.3581    0.0127
     -5.40   -0.3463    0.0125
     -5.30   -0.3335    0.0124
     -5.20   -0.3214    0.0122
     -5.10   -0.3088    0.0121
     -5.00   -0.2959    0.0120
     -4.90   -0.2839    0.0118
     -4.80   -0.2758    0.0117
     -4.70   -0.2656    0.0116
     -4.50   -0.2435    0.0113
     -4.40   -0.2319    0.0112
     -4.30   -0.2197    0.0111
     -4.20   -0.2089    0.0110
     -4.10   -0.1995    0.0109
     -3.90   -0.1788    0.0107
     -3.80   -0.1678    0.0106
     -3.70   -0.1562    0.0105
     -3.60   -0.1449    0.0104
     -3.50   -0.1352    0.0103
     -3.40   -0.1252    0.0102
     -3.30   -0.1148    0.0101
     -3.20   -0.1036    0.0101
     -3.10   -0.0927    0.0099
     -3.00   -0.0816    0.0099
     -2.90   -0.0715    0.0098
     -2.80   -0.0615    0.0097
     -2.70   -0.0507    0.0096
     -2.60   -0.0402    0.0095
     -2.50   -0.0291    0.0094
     -2.40   -0.0190    0.0094
     -2.30   -0.0088    0.0093
     -2.20    0.0015    0.0092
     -2.10    0.0121    0.0091
     -2.00    0.0225    0.0090
     -1.90    0.0330    0.0090
     -1.80    0.0430    0.0089
     -1.70    0.0531    0.0088
     -1.60    0.0635    0.0087
     -1.50    0.0738    0.0087
     -1.40    0.0843    0.0086
     -1.30    0.0943    0.0086
     -1.20    0.1046    0.0085
     -1.10    0.1148    0.0085
     -1.00    0.1251    0.0084
     -0.90    0.1355    0.0084
     -0.80    0.1457    0.0084
     -0.70    0.1559    0.0083
     -0.60    0.1661    0.0083
     -0.50    0.1764    0.0083
     -0.40    0.1867    0.0083
     -0.30    0.1970    0.0083
     -0.20    0.2072    0.0082
     -0.10    0.2173    0.0082
      0.00    0.2276    0.0082
      0.10    0.2377    0.0082
      0.20    0.2481    0.0082
      0.30    0.2582    0.0082
      0.50    0.2785    0.0083
      0.60    0.2887    0.0083
      0.70    0.2992    0.0083
      0.80    0.3094    0.0084
      0.90    0.3197    0.0084
      1.00    0.3304    0.0084
      1.10    0.3404    0.0085
      1.20    0.3519    0.0086
      1.30    0.3634    0.0086
      1.40    0.3733    0.0086
      1.50    0.3867    0.0087
      1.60    0.3992    0.0088
      1.70    0.4097    0.0089
      1.80    0.4243    0.0089
      1.90    0.4391    0.0090
      2.00    0.4531    0.0091
      2.10    0.4645    0.0091
      2.20    0.4807    0.0092
      2.30    0.4976    0.0093
      2.40    0.5148    0.0094
      2.50    0.5316    0.0094
      2.60    0.5471    0.0095
      2.70    0.5615    0.0096
      2.80    0.5791    0.0097
      2.90    0.5971    0.0097
      3.00    0.6144    0.0097
      3.10    0.6312    0.0098
      3.20    0.6474    0.0099
      3.30    0.6637    0.0100
      3.40    0.6817    0.0100
      3.50    0.7005    0.0101
      3.60    0.7192    0.0101
      3.70    0.7309    0.0101
      3.80    0.7392    0.0102
      3.90    0.7472    0.0103
      4.00    0.7555    0.0103
      4.10    0.7642    0.0103
      4.20    0.7727    0.0104
      4.30    0.7811    0.0104
      4.40    0.7893    0.0105
      4.50    0.7973    0.0105
      4.60    0.8051    0.0106
      4.70    0.8138    0.0107
      4.80    0.8224    0.0107
      4.90    0.8307    0.0107
      5.00    0.8388    0.0108
      5.10    0.8467    0.0109
      5.20    0.8543    0.0110
      5.30    0.8631    0.0110
      5.40    0.8716    0.0111
      5.50    0.8799    0.0111
      5.60    0.8879    0.0112
      5.70    0.8954    0.0113
      5.80    0.9035    0.0114
      5.90    0.9122    0.0114
      6.00    0.9206    0.0115
      6.10    0.9285    0.0116
      6.20    0.9359    0.0117
      6.30    0.9438    0.0118
      6.40    0.9525    0.0119
      6.50    0.9606    0.0120
      6.60    0.9682    0.0121
      6.70    0.9753    0.0122
      6.80    0.9839    0.0123
      6.90    0.9923    0.0124
      7.00    1.0000    0.0125
      7.10    1.0070    0.0127
      7.20    1.0153    0.0128
      7.30    1.0238    0.0129
      7.40    1.0314    0.0130
      7.50    1.0383    0.0132
      7.60    1.0468    0.0133
      7.70    1.0551    0.0134
      7.80    1.0624    0.0136
      7.90    1.0690    0.0138
      8.00    1.0777    0.0139
      8.10    1.0853    0.0141
      8.20    1.0917    0.0143
      8.30    1.0995    0.0145
      8.40    1.1073    0.0146
      8.50    1.1140    0.0149
      8.60    1.1205    0.0151
      8.70    1.1285    0.0152
      8.80    1.1355    0.0154
      8.90    1.1411    0.0157
      9.00    1.1484    0.0159
      9.10    1.1553    0.0161
      9.20    1.1605    0.0163
      9.30    1.1655    0.0166
      9.40    1.1720    0.0168
      9.50    1.1773    0.0170
      9.60    1.1814    0.0173
      9.70    1.1876    0.0175
      9.80    1.1935    0.0178
      9.90    1.1984    0.0181
     10.00    1.2022    0.0184
     10.10    1.2087    0.0186
     10.20    1.2146    0.0189
     10.30    1.2194    0.0192
     10.40    1.2233    0.0196
     10.50    1.2280    0.0199
     10.60    1.2343    0.0201
     10.70    1.2396    0.0204
     10.80    1.2440    0.0208
     10.90    1.2472    0.0212
     11.00    1.2500    0.0217
     11.10    1.2567    0.0219
     11.20    1.2622    0.0223
     11.30    1.2667    0.0226
     11.40    1.2705    0.0231
     11.50    1.2733    0.0236
     11.60    1.2740    0.0242
     11.70    1.2794    0.0246
     11.80    1.2853    0.0249
     11.90    1.2904    0.0253
     12.00    1.2946    0.0257
     12.10    1.2980    0.0262
     12.20    1.3008    0.0268
     12.30    1.3022    0.0274
     12.40    1.3016    0.0282
     12.50    1.3043    0.0288
     12.60    1.3095    0.0292
     12.70    1.3140    0.0297
     12.80    1.3180    0.0303
     12.90    1.3217    0.0308
     13.00    1.3251    0.0314
     13.10    1.3277    0.0320
     13.20    1.3299    0.0328
     13.30    1.3315    0.0335
     13.40    1.3320    0.0344
     13.50    1.3311    0.0354
     13.60    1.3289    0.0365
     13.70    1.3273    0.0376
     13.80    1.3312    0.0382
     13.90    1.3348    0.0388
     14.00    1.3379    0.0395
     14.10    1.3404    0.0403
     14.20    1.3427    0.0411
     14.30    1.3448    0.0419
     14.40    1.3467    0.0428
     14.50    1.3482    0.0437
     14.60    1.3496    0.0446
     14.70    1.3509    0.0455
     14.80    1.3516    0.0465
     14.90    1.3517    0.0476
     15.00    1.3517    0.0487
     15.10    1.3512    0.0498
     15.20    1.3498    0.0511
     15.30    1.3477    0.0524
     15.40    1.3451    0.0538
     15.50    1.3415    0.0552
     15.60    1.3402    0.0565
     15.70    1.3419    0.0575
     15.80    1.3436    0.0585
     15.90    1.3452    0.0595
     16.00    1.3463    0.0606
     16.10    1.3469    0.0618
     16.20    1.3476    0.0630
     16.30    1.3482    0.0641
     16.40    1.3486    0.0653
     16.50    1.3484    0.0666
     16.60    1.3481    0.0679
     16.70    1.3480    0.0691
     16.80    1.3479    0.0704
     16.90    1.3475    0.0717
     17.00    1.3467    0.0731
     17.10    1.3460    0.0745
     17.20    1.3453    0.0759
     17.30    1.3448    0.0772
     17.40    1.3437    0.0787
     17.50    1.3421    0.0802
     17.60    1.3407    0.0817
     17.70    1.3393    0.0832
     17.80    1.3379    0.0847
     17.90    1.3361    0.0863
     18.00    1.3338    0.0878
     18.10    1.3317    0.0894
     18.20    1.3295    0.0908
     18.30    1.3264    0.0923
     18.40    1.3216    0.0940
     18.50    1.3209    0.0955
     18.60    1.3202    0.0970
     18.70    1.3186    0.0986
     18.80    1.3169    0.1003
     18.90    1.3154    0.1019
     19.00    1.3141    0.1035
     19.10    1.3126    0.1052
     19.20    1.3104    0.1069
     19.30    1.3078    0.1088
     19.40    1.3054    0.1106
     19.50    1.3031    0.1124
     19.60    1.3007    0.1142
     19.70    1.2976    0.1162
     19.80    1.2942    0.1182
     19.90    1.2911    0.1202
     20.00    1.2882    0.1222
     21.00    1.2294    0.1544
     22.00    1.2049    0.1775
     23.00    1.1827    0.2016
     24.00    1.1634    0.2266
     25.00    1.1472    0.2523
     26.00    1.1338    0.2787
     27.00    1.1233    0.3056
     28.00    1.1153    0.3331
     29.00    1.1096    0.3609
     30.00    1.1058    0.3892
     31.00    1.1038    0.4179
     32.00    1.1031    0.4470
     33.00    1.1036    0.4763
     34.00    1.1050    0.5059
     35.00    1.1072    0.5358
     36.00    1.1097    0.5660
     37.00    1.1126    0.5963
     38.00    1.1157    0.6269
     39.00    1.1187    0.6576
     40.00    1.1217    0.6884
     41.00    1.1243    0.7193
     42.00    1.1267    0.7503
     43.00    1.1285    0.7813
     44.00    1.1299    0.8124
     45.00    1.1306    0.8434
     46.00    1.1307    0.8744
     47.00    1.1301    0.9053
     48.00    1.1286    0.9361
     49.00    1.1263    0.9667
     50.00    1.1232    0.9971
     51.00    1.1191    1.0274
     52.00    1.1141    1.0573
     53.00    1.1081    1.0870
     54.00    1.1011    1.1164
     55.00    1.0931    1.1454
     56.00    1.0840    1.1741
     57.00    1.0739    1.2023
     58.00    1.0627    1.2301
     59.00    1.0505    1.2574
     60.00    1.0371    1.2842
     61.00    1.0227    1.3104
     62.00    1.0071    1.3361
     63.00    0.9905    1.3612
     64.00    0.9728    1.3857
     65.00    0.9540    1.4094
     66.00    0.9342    1.4325
     67.00    0.9133    1.4549
     68.00    0.8913    1.4766
     69.00    0.8683    1.4974
     70.00    0.8443    1.5175
     71.00    0.8193    1.5368
     72.00    0.7934    1.5552
     73.00    0.7664    1.5727
     74.00    0.7386    1.5894
     75.00    0.7098    1.6052
     76.00    0.6802    1.6200
     77.00    0.6498    1.6340
     78.00    0.6185    1.6469
     79.00    0.5865    1.6589
     80.00    0.5537    1.6699
     81.00    0.5203    1.6799
     82.00    0.4862    1.6889
     83.00    0.4514    1.6969
     84.00    0.4161    1.7038
     85.00    0.3802    1.7097
     86.00    0.3439    1.7146
     87.00    0.3071    1.7184
     88.00    0.2698    1.7211
     89.00    0.2323    1.7228
     90.00    0.1944    1.7234
     91.00    0.1563    1.7230
     92.00    0.1179    1.7215
     93.00    0.0794    1.7190
     94.00    0.0408    1.7154
     95.00    0.0021    1.7107
     96.00   -0.0366    1.7050
     97.00   -0.0752    1.6983
     98.00   -0.1137    1.6905
     99.00   -0.1521    1.6818
    100.00   -0.1903    1.6720
    101.00   -0.2282    1.6612
    102.00   -0.2658    1.6495
    103.00   -0.3030    1.6367
    104.00   -0.3399    1.6231
    105.00   -0.3762    1.6084
    106.00   -0.4121    1.5929
    107.00   -0.4473    1.5765
    108.00   -0.4820    1.5592
    109.00   -0.5160    1.5411
    110.00   -0.5492    1.5221
    111.00   -0.5895    1.5023
    112.00   -0.6210    1.4817
    113.00   -0.6517    1.4604
    114.00   -0.6815    1.4384
    115.00   -0.7103    1.4156
    116.00   -0.7382    1.3922
    117.00   -0.7650    1.3681
    118.00   -0.7908    1.3434
    119.00   -0.8155    1.3181
    120.00   -0.8390    1.2923
    121.00   -0.8614    1.2660
    122.00   -0.8826    1.2391
    123.00   -0.9025    1.2118
    124.00   -0.9212    1.1841
    125.00   -0.9386    1.1560
    126.00   -0.9546    1.1275
    127.00   -0.9694    1.0988
    128.00   -0.9828    1.0697
    129.00   -0.9948    1.0404
    130.00   -1.0055    1.0109
    131.00   -1.0147    0.9812
    132.00   -1.0226    0.9513
    133.00   -1.0290    0.9214
    134.00   -1.0340    0.8914
    135.00   -1.0376    0.8614
    136.00   -1.0398    0.8313
    137.00   -1.0406    0.8014
    138.00   -1.0399    0.7715
    139.00   -1.0379    0.7417
    140.00   -1.0344    0.7121
    141.00   -1.0295    0.6827
    142.00   -1.0233    0.6535
    143.00   -1.0158    0.6245
    144.00   -1.0069    0.5959
    145.00   -0.9967    0.5676
    146.00   -0.9852    0.5396
    147.00   -0.9724    0.5121
    148.00   -0.9585    0.4850
    149.00   -0.9434    0.4583
    150.00   -0.9271    0.4322
    151.00   -0.9097    0.4066
    152.00   -0.8913    0.3816
    153.00   -0.8719    0.3571
    154.00   -0.8516    0.3333
    155.00   -0.8303    0.3101
    156.00   -0.8083    0.2876
    157.00   -0.7856    0.2658
    158.00   -0.7622    0.2447
    159.00   -0.7384    0.2244
    160.00   -0.7141    0.2049
    161.00   -0.6897    0.1862
    162.00   -0.6652    0.1683
    163.00   -0.6408    0.1512
    164.00   -0.6170    0.1350
    165.00   -0.5940    0.1197
    166.00   -0.5723    0.1053
    167.00   -0.5524    0.0919
    168.00   -0.5350    0.0793
    169.00   -0.5207    0.0677
    170.00   -0.5099    0.0571
    171.00   -0.5023    0.0475
    172.00   -0.4962    0.0388
    173.00   -0.4870    0.0312
    174.00   -0.4680    0.0245
    175.00   -0.4323    0.0189
    176.00   -0.3777    0.0142
    177.00   -0.3078    0.0106
    178.00   -0.2293    0.0081
    179.00   -0.1476    0.0065
    180.00   -0.0653    0.0060
    180.00   -0.0653    0.0060
