AeroDyn airfoil file Created with QBlade v0.963 64bit on 03.01.2019 at 14:40:15 Compatible with AeroDyn v13.0.
Polar "T1_Re0.060_M0.00_N9.0 360 M" on Foil "T1_Re0.060_M0.00_N9.0" :: generated by QBlade
1              Number of airfoil tables in this file
0              Table ID parameter
12.20          Stall angle (deg)
0              No longer used, enter zero
0              No longer used, enter zero
0              No longer used, enter zero
-0.90          Angle of attack for zero Cn for linear Cn curve (deg)
10.16407       Cn slope for zero lift for linear Cn curve (1/rad)
-0.3860        Cn at stall value for positive angle of attack for linear Cn curve
-0.3065        Cn at stall value for negative angle of attack for linear Cn curve
-2.70          Angle of attack for minimum CD (deg)
0.0263         Minimum CD value
   -180.00   -0.0264    0.0060
   -179.00    0.2968    0.0065
   -178.00    0.6198    0.0081
   -177.00    0.9280    0.0106
   -176.00    1.1427    0.0142
   -175.00    1.1523    0.0188
   -174.00    0.9834    0.0244
   -173.00    0.7801    0.0311
   -172.00    0.6259    0.0387
   -171.00    0.5288    0.0473
   -170.00    0.4734    0.0568
   -169.00    0.4450    0.0673
   -168.00    0.4335    0.0788
   -167.00    0.4325    0.0912
   -166.00    0.4382    0.1045
   -165.00    0.4481    0.1187
   -164.00    0.4606    0.1338
   -163.00    0.4746    0.1498
   -162.00    0.4895    0.1666
   -161.00    0.5047    0.1842
   -160.00    0.5200    0.2026
   -159.00    0.5350    0.2218
   -158.00    0.5496    0.2417
   -157.00    0.5637    0.2623
   -156.00    0.5772    0.2837
   -155.00    0.5899    0.3057
   -154.00    0.6019    0.3284
   -153.00    0.6130    0.3517
   -152.00    0.6233    0.3756
   -151.00    0.6327    0.4000
   -150.00    0.6412    0.4250
   -149.00    0.6488    0.4504
   -148.00    0.6555    0.4764
   -147.00    0.6612    0.5027
   -146.00    0.6659    0.5295
   -145.00    0.6698    0.5566
   -144.00    0.6726    0.5841
   -143.00    0.6746    0.6119
   -142.00    0.6756    0.6400
   -141.00    0.6757    0.6682
   -140.00    0.6749    0.6967
   -139.00    0.6733    0.7254
   -138.00    0.6707    0.7542
   -137.00    0.6672    0.7830
   -136.00    0.6629    0.8120
   -135.00    0.6578    0.8409
   -134.00    0.6518    0.8699
   -133.00    0.6451    0.8988
   -132.00    0.6375    0.9276
   -131.00    0.6292    0.9563
   -130.00    0.6201    0.9849
   -129.00    0.6103    1.0133
   -128.00    0.5999    1.0414
   -127.00    0.5887    1.0694
   -126.00    0.5769    1.0970
   -125.00    0.5644    1.1243
   -124.00    0.5514    1.1513
   -123.00    0.5377    1.1778
   -122.00    0.5235    1.2040
   -121.00    0.5087    1.2297
   -120.00    0.4934    1.2549
   -119.00    0.4776    1.2796
   -118.00    0.4614    1.3038
   -117.00    0.4447    1.3274
   -116.00    0.4276    1.3504
   -115.00    0.4100    1.3728
   -114.00    0.3921    1.3946
   -113.00    0.3739    1.4156
   -112.00    0.3553    1.4360
   -111.00    0.3364    1.4556
   -110.00    0.3172    1.4745
   -109.00    0.2978    1.4926
   -108.00    0.2774    1.5100
   -107.00    0.2575    1.5265
   -106.00    0.2374    1.5421
   -105.00    0.2171    1.5569
   -104.00    0.1967    1.5709
   -103.00    0.1762    1.5839
   -102.00    0.1555    1.5961
   -101.00    0.1348    1.6073
   -100.00    0.1139    1.6176
    -99.00    0.0931    1.6270
    -98.00    0.0722    1.6354
    -97.00    0.0513    1.6428
    -96.00    0.0303    1.6493
    -95.00    0.0095    1.6548
    -94.00   -0.0114    1.6593
    -93.00   -0.0322    1.6628
    -92.00   -0.0529    1.6653
    -91.00   -0.0735    1.6668
    -90.00   -0.0939    1.6673
    -89.00   -0.1143    1.6668
    -88.00   -0.1345    1.6653
    -87.00   -0.1545    1.6628
    -86.00   -0.1744    1.6593
    -85.00   -0.1940    1.6548
    -84.00   -0.2135    1.6493
    -83.00   -0.2327    1.6428
    -82.00   -0.2517    1.6354
    -81.00   -0.2704    1.6270
    -80.00   -0.2888    1.6176
    -79.00   -0.3069    1.6073
    -78.00   -0.3248    1.5961
    -77.00   -0.3423    1.5839
    -76.00   -0.3595    1.5709
    -75.00   -0.3763    1.5569
    -74.00   -0.3928    1.5421
    -73.00   -0.4089    1.5264
    -72.00   -0.4246    1.5099
    -71.00   -0.4399    1.4926
    -70.00   -0.4547    1.4745
    -69.00   -0.4692    1.4556
    -68.00   -0.4832    1.4359
    -67.00   -0.4967    1.4156
    -66.00   -0.5098    1.3945
    -65.00   -0.5224    1.3728
    -64.00   -0.5345    1.3504
    -63.00   -0.5461    1.3274
    -62.00   -0.5572    1.3037
    -61.00   -0.5678    1.2796
    -60.00   -0.5778    1.2548
    -59.00   -0.5872    1.2296
    -58.00   -0.5961    1.2039
    -57.00   -0.6044    1.1777
    -56.00   -0.6122    1.1512
    -55.00   -0.6193    1.1242
    -54.00   -0.6259    1.0969
    -53.00   -0.6318    1.0693
    -52.00   -0.6371    1.0413
    -51.00   -0.6418    1.0132
    -50.00   -0.6458    0.9848
    -49.00   -0.6492    0.9562
    -48.00   -0.6519    0.9275
    -47.00   -0.6540    0.8987
    -46.00   -0.6554    0.8697
    -45.00   -0.6561    0.8408
    -44.00   -0.6561    0.8118
    -43.00   -0.6555    0.7829
    -42.00   -0.6541    0.7540
    -41.00   -0.6521    0.7252
    -40.00   -0.6494    0.6965
    -39.00   -0.6460    0.6680
    -38.00   -0.6418    0.6398
    -37.00   -0.6370    0.6117
    -36.00   -0.6315    0.5839
    -35.00   -0.6252    0.5564
    -34.00   -0.6183    0.5293
    -33.00   -0.6107    0.5025
    -32.00   -0.6024    0.4761
    -31.00   -0.5934    0.4502
    -30.00   -0.5837    0.4247
    -29.00   -0.5734    0.3997
    -28.00   -0.5624    0.3753
    -27.00   -0.5508    0.3514
    -26.00   -0.5385    0.3281
    -25.00   -0.5256    0.3054
    -24.00   -0.5122    0.2833
    -23.00   -0.4981    0.2620
    -22.00   -0.4835    0.2413
    -21.00   -0.4684    0.2213
    -20.00   -0.4528    0.2021
    -19.00   -0.4368    0.1837
    -18.00   -0.4203    0.1661
    -17.00   -0.4035    0.1493
    -16.00   -0.3864    0.1333
    -15.00   -0.3691    0.1182
    -14.00   -0.3516    0.1039
    -13.00   -0.3341    0.0906
    -12.00   -0.3166    0.0782
    -11.00   -0.2993    0.0667
    -10.00   -0.3718    0.1141
     -9.90   -0.3848    0.1140
     -9.80   -0.4261    0.1159
     -9.60   -0.5425    0.0866
     -9.50   -0.5382    0.0849
     -9.40   -0.5336    0.0832
     -9.30   -0.5307    0.0816
     -9.20   -0.5319    0.0798
     -9.10   -0.5374    0.0779
     -9.00   -0.5470    0.0759
     -8.90   -0.5605    0.0739
     -8.80   -0.5770    0.0716
     -8.70   -0.5976    0.0689
     -8.60   -0.6265    0.0656
     -8.50   -0.7119    0.0586
     -8.30   -0.7196    0.0553
     -8.20   -0.7205    0.0537
     -8.10   -0.7196    0.0524
     -8.00   -0.7176    0.0513
     -7.90   -0.7121    0.0506
     -7.80   -0.7088    0.0497
     -7.70   -0.7066    0.0488
     -7.60   -0.7050    0.0478
     -7.50   -0.7036    0.0468
     -7.40   -0.7022    0.0457
     -7.30   -0.7007    0.0447
     -7.20   -0.6991    0.0436
     -7.10   -0.6974    0.0426
     -7.00   -0.6960    0.0416
     -6.90   -0.6948    0.0407
     -6.80   -0.6892    0.0398
     -6.70   -0.6823    0.0395
     -6.60   -0.6756    0.0392
     -6.50   -0.6700    0.0386
     -6.40   -0.6651    0.0379
     -6.30   -0.6603    0.0371
     -6.20   -0.6554    0.0362
     -6.10   -0.6494    0.0353
     -6.00   -0.6421    0.0348
     -5.90   -0.6350    0.0343
     -5.80   -0.6280    0.0339
     -5.70   -0.6213    0.0335
     -5.60   -0.6149    0.0331
     -5.50   -0.6076    0.0325
     -5.40   -0.6001    0.0322
     -5.30   -0.5928    0.0320
     -5.20   -0.5853    0.0316
     -5.10   -0.5777    0.0311
     -5.00   -0.5695    0.0306
     -4.90   -0.5616    0.0303
     -4.80   -0.5539    0.0300
     -4.70   -0.5462    0.0298
     -4.60   -0.5384    0.0294
     -4.50   -0.5309    0.0292
     -4.40   -0.5232    0.0290
     -4.30   -0.5152    0.0287
     -4.20   -0.5075    0.0284
     -4.10   -0.4997    0.0282
     -4.00   -0.4916    0.0280
     -3.90   -0.4841    0.0278
     -3.80   -0.4765    0.0276
     -3.70   -0.4685    0.0274
     -3.60   -0.4611    0.0273
     -3.50   -0.4533    0.0271
     -3.40   -0.4455    0.0269
     -3.30   -0.4380    0.0268
     -3.20   -0.4301    0.0267
     -3.10   -0.4228    0.0266
     -3.00   -0.4149    0.0265
     -2.90   -0.4077    0.0264
     -2.80   -0.3999    0.0263
     -2.70   -0.3927    0.0263
     -2.60   -0.3759    0.0263
     -2.50   -0.3554    0.0264
     -2.40   -0.3389    0.0264
     -2.30   -0.3207    0.0264
     -2.20   -0.3010    0.0266
     -2.10   -0.2882    0.0265
     -2.00   -0.2723    0.0266
     -1.90   -0.2547    0.0267
     -1.80   -0.2425    0.0268
     -1.70   -0.2324    0.0268
     -1.60   -0.2192    0.0270
     -1.50   -0.2031    0.0272
     -1.40   -0.1930    0.0274
     -1.30   -0.1819    0.0275
     -1.20   -0.1589    0.0279
     -1.10   -0.1227    0.0284
     -1.00   -0.0690    0.0290
     -0.90   -0.0022    0.0296
     -0.80    0.0523    0.0298
     -0.70    0.1078    0.0299
     -0.60    0.1223    0.0298
     -0.50    0.1397    0.0297
     -0.40    0.1642    0.0295
     -0.20    0.1625    0.0295
     -0.10    0.1834    0.0295
      0.00    0.2108    0.0294
      0.10    0.1930    0.0296
      0.20    0.2023    0.0296
      0.30    0.2237    0.0296
      0.40    0.2524    0.0294
      0.50    0.2843    0.0293
      0.80    0.2872    0.0297
      0.90    0.3159    0.0295
      1.00    0.3370    0.0294
      1.10    0.3049    0.0302
      1.20    0.3207    0.0302
      1.30    0.3435    0.0300
      1.40    0.3690    0.0298
      1.50    0.3952    0.0295
      1.60    0.3639    0.0306
      1.70    0.3727    0.0307
      1.80    0.3916    0.0305
      1.90    0.4150    0.0303
      2.00    0.4392    0.0300
      2.10    0.4308    0.0306
      2.20    0.4240    0.0312
      2.30    0.4376    0.0311
      2.40    0.4578    0.0309
      2.50    0.4800    0.0306
      2.60    0.5039    0.0302
      2.70    0.4837    0.0314
      2.80    0.4847    0.0318
      2.90    0.4998    0.0317
      3.00    0.5205    0.0314
      3.10    0.5425    0.0310
      3.20    0.5659    0.0306
      3.30    0.5420    0.0321
      3.40    0.5455    0.0325
      3.50    0.5612    0.0323
      3.60    0.5815    0.0319
      3.70    0.6038    0.0315
      3.80    0.6278    0.0310
      3.90    0.6013    0.0328
      4.00    0.6067    0.0331
      4.10    0.6233    0.0328
      4.20    0.6433    0.0324
      4.30    0.6662    0.0319
      4.40    0.6847    0.0316
      4.50    0.6607    0.0334
      4.60    0.6692    0.0336
      4.70    0.6866    0.0333
      4.80    0.7074    0.0328
      4.90    0.7317    0.0321
      5.00    0.7266    0.0331
      5.10    0.7210    0.0340
      5.20    0.7341    0.0339
      5.30    0.7524    0.0335
      5.40    0.7759    0.0328
      5.50    0.7951    0.0325
      5.60    0.7773    0.0341
      5.70    0.7844    0.0343
      5.80    0.8013    0.0340
      5.90    0.8241    0.0333
      6.00    0.8498    0.0326
      6.10    0.8326    0.0342
      6.20    0.8371    0.0346
      6.30    0.8532    0.0342
      6.40    0.8764    0.0335
      6.50    0.8946    0.0332
      6.60    0.8835    0.0345
      6.70    0.8900    0.0347
      6.80    0.9084    0.0342
      6.90    0.9332    0.0334
      7.00    0.9342    0.0341
      7.10    0.9326    0.0348
      7.20    0.9447    0.0346
      7.30    0.9673    0.0339
      7.40    0.9798    0.0339
      7.50    0.9750    0.0348
      7.60    0.9836    0.0348
      7.70    1.0043    0.0342
      7.80    1.0184    0.0341
      7.90    1.0142    0.0349
      8.00    1.0226    0.0350
      8.10    1.0439    0.0343
      8.20    1.0514    0.0346
      8.30    1.0497    0.0352
      8.40    1.0604    0.0351
      8.50    1.0865    0.0344
      8.60    1.0802    0.0352
      8.70    1.0830    0.0356
      8.80    1.0991    0.0352
      8.90    1.1102    0.0352
      9.00    1.1079    0.0359
      9.10    1.1167    0.0359
      9.20    1.1378    0.0355
      9.30    1.1324    0.0363
      9.40    1.1354    0.0366
      9.50    1.1524    0.0363
      9.60    1.1555    0.0368
      9.70    1.1545    0.0374
      9.80    1.1640    0.0375
      9.90    1.1785    0.0376
     10.00    1.1743    0.0384
     10.10    1.1768    0.0389
     10.20    1.1921    0.0388
     10.30    1.1955    0.0395
     10.40    1.1926    0.0402
     10.50    1.1966    0.0406
     10.60    1.2181    0.0406
     10.70    1.2134    0.0415
     10.80    1.2105    0.0423
     10.90    1.2125    0.0430
     11.00    1.2248    0.0432
     11.10    1.2373    0.0440
     11.20    1.2318    0.0449
     11.30    1.2284    0.0457
     11.40    1.2287    0.0464
     11.50    1.2405    0.0466
     11.60    1.2553    0.0473
     11.70    1.2484    0.0483
     11.80    1.2423    0.0492
     11.90    1.2374    0.0501
     12.00    1.2354    0.0509
     12.10    1.2395    0.0515
     12.20    1.2755    0.0523
     12.30    1.2662    0.0534
     12.40    1.2568    0.0545
     12.50    1.2474    0.0558
     12.60    1.2378    0.0571
     12.70    1.2280    0.0586
     12.80    1.2178    0.0602
     12.90    1.2069    0.0618
     13.00    1.1950    0.0636
     13.10    1.1814    0.0657
     13.20    1.1647    0.0681
     13.30    1.1424    0.0712
     13.40    1.1124    0.0753
     13.50    1.0753    0.0808
     13.60    1.0322    0.0880
     13.70    0.9854    0.0971
     13.80    0.9415    0.1070
     14.00    1.1185    0.0826
     14.10    1.1069    0.0856
     14.40    0.7825    0.1569
     14.50    0.7897    0.1588
     14.70    0.1822    0.0431
     14.80    0.1854    0.0438
     14.90    0.1897    0.0445
     15.00    0.1952    0.0454
     15.10    0.2029    0.0466
     15.20    0.2187    0.0491
     15.30    0.2197    0.0501
     15.40    0.2141    0.0500
     15.50    0.2100    0.0498
     15.60    0.2113    0.0503
     15.70    0.2152    0.0511
     15.80    0.2201    0.0520
     15.90    0.2263    0.0531
     16.00    0.2344    0.0545
     16.10    0.2456    0.0568
     16.20    0.2522    0.0588
     16.30    0.2489    0.0590
     16.40    0.2451    0.0590
     16.50    0.2425    0.0590
     16.60    0.2434    0.0596
     16.70    0.2460    0.0604
     16.80    0.2496    0.0613
     16.90    0.2543    0.0623
     17.00    0.2609    0.0636
     17.10    0.2727    0.0658
     17.20    0.2824    0.0687
     17.30    0.2779    0.0686
     17.40    0.2735    0.0683
     17.50    0.2727    0.0686
     17.60    0.2749    0.0694
     17.70    0.2782    0.0704
     17.80    0.2823    0.0715
     17.90    0.2872    0.0726
     18.00    0.2931    0.0740
     18.10    0.3008    0.0759
     18.20    0.3111    0.0787
     18.30    0.3179    0.0812
     18.40    0.3154    0.0814
     18.50    0.3124    0.0814
     18.60    0.3099    0.0814
     18.70    0.3100    0.0819
     18.80    0.3120    0.0828
     18.90    0.3149    0.0838
     19.00    0.3184    0.0850
     19.10    0.3225    0.0862
     19.20    0.3279    0.0876
     19.30    0.3361    0.0896
     19.40    0.3529    0.0947
     19.50    0.3495    0.0947
     19.60    0.3456    0.0944
     19.70    0.3427    0.0942
     19.80    0.3432    0.0948
     19.90    0.3456    0.0958
     20.00    0.3486    0.0970
     21.00    0.4654    0.2282
     22.00    0.5135    0.2481
     23.00    0.5566    0.2688
     24.00    0.5959    0.2903
     25.00    0.6320    0.3125
     26.00    0.6655    0.3355
     27.00    0.6967    0.3591
     28.00    0.7260    0.3834
     29.00    0.7537    0.4083
     30.00    0.7797    0.4338
     31.00    0.8043    0.4598
     32.00    0.8276    0.4863
     33.00    0.8495    0.5133
     34.00    0.8702    0.5408
     35.00    0.8898    0.5687
     36.00    0.9081    0.5969
     37.00    0.9253    0.6255
     38.00    0.9413    0.6544
     39.00    0.9561    0.6836
     40.00    0.9698    0.7129
     41.00    0.9823    0.7425
     42.00    0.9937    0.7723
     43.00    1.0039    0.8021
     44.00    1.0129    0.8321
     45.00    1.0207    0.8621
     46.00    1.0273    0.8921
     47.00    1.0327    0.9221
     48.00    1.0369    0.9520
     49.00    1.0398    0.9819
     50.00    1.0415    1.0116
     51.00    1.0420    1.0411
     52.00    1.0412    1.0704
     53.00    1.0392    1.0994
     54.00    1.0359    1.1282
     55.00    1.0314    1.1567
     56.00    1.0256    1.1848
     57.00    1.0185    1.2125
     58.00    1.0102    1.2399
     59.00    1.0006    1.2667
     60.00    0.9898    1.2931
     61.00    0.9777    1.3189
     62.00    0.9644    1.3442
     63.00    0.9499    1.3689
     64.00    0.9341    1.3930
     65.00    0.9172    1.4165
     66.00    0.8991    1.4393
     67.00    0.8798    1.4614
     68.00    0.8593    1.4827
     69.00    0.8377    1.5033
     70.00    0.8150    1.5231
     71.00    0.7912    1.5421
     72.00    0.7664    1.5603
     73.00    0.7406    1.5777
     74.00    0.7137    1.5941
     75.00    0.6858    1.6097
     76.00    0.6571    1.6244
     77.00    0.6274    1.6381
     78.00    0.5968    1.6509
     79.00    0.5655    1.6627
     80.00    0.5333    1.6735
     81.00    0.5004    1.6834
     82.00    0.4667    1.6922
     83.00    0.4324    1.7000
     84.00    0.3975    1.7068
     85.00    0.3620    1.7126
     86.00    0.3260    1.7173
     87.00    0.2894    1.7210
     88.00    0.2525    1.7237
     89.00    0.2152    1.7252
     90.00    0.1775    1.7258
     91.00    0.1395    1.7252
     92.00    0.1014    1.7236
     93.00    0.0630    1.7210
     94.00    0.0246    1.7173
     95.00   -0.0140    1.7126
     96.00   -0.0525    1.7068
     97.00   -0.0910    1.7000
     98.00   -0.1294    1.6922
     99.00   -0.1677    1.6833
    100.00   -0.2057    1.6735
    101.00   -0.2435    1.6626
    102.00   -0.2809    1.6508
    103.00   -0.3180    1.6380
    104.00   -0.3547    1.6243
    105.00   -0.3908    1.6096
    106.00   -0.4264    1.5940
    107.00   -0.4615    1.5776
    108.00   -0.4959    1.5602
    109.00   -0.5292    1.5420
    110.00   -0.5622    1.5230
    111.00   -0.5944    1.5032
    112.00   -0.6258    1.4826
    113.00   -0.6562    1.4612
    114.00   -0.6858    1.4391
    115.00   -0.7143    1.4163
    116.00   -0.7418    1.3929
    117.00   -0.7683    1.3687
    118.00   -0.7936    1.3440
    119.00   -0.8179    1.3187
    120.00   -0.8409    1.2929
    121.00   -0.8628    1.2665
    122.00   -0.8834    1.2396
    123.00   -0.9027    1.2123
    124.00   -0.9207    1.1845
    125.00   -0.9374    1.1564
    126.00   -0.9528    1.1279
    127.00   -0.9668    1.0991
    128.00   -0.9794    1.0700
    129.00   -0.9906    1.0407
    130.00   -1.0004    1.0112
    131.00   -1.0088    0.9814
    132.00   -1.0157    0.9516
    133.00   -1.0212    0.9216
    134.00   -1.0253    0.8916
    135.00   -1.0279    0.8616
    136.00   -1.0291    0.8315
    137.00   -1.0288    0.8016
    138.00   -1.0271    0.7717
    139.00   -1.0240    0.7419
    140.00   -1.0195    0.7122
    141.00   -1.0136    0.6828
    142.00   -1.0063    0.6536
    143.00   -0.9976    0.6246
    144.00   -0.9876    0.5960
    145.00   -0.9764    0.5677
    146.00   -0.9638    0.5397
    147.00   -0.9500    0.5122
    148.00   -0.9350    0.4851
    149.00   -0.9189    0.4584
    150.00   -0.9016    0.4323
    151.00   -0.8832    0.4067
    152.00   -0.8639    0.3816
    153.00   -0.8436    0.3572
    154.00   -0.8223    0.3333
    155.00   -0.8003    0.3101
    156.00   -0.7776    0.2876
    157.00   -0.7542    0.2658
    158.00   -0.7304    0.2448
    159.00   -0.7062    0.2245
    160.00   -0.6818    0.2049
    161.00   -0.6576    0.1862
    162.00   -0.6337    0.1683
    163.00   -0.6107    0.1512
    164.00   -0.5892    0.1350
    165.00   -0.5700    0.1197
    166.00   -0.5545    0.1054
    167.00   -0.5448    0.0919
    168.00   -0.5439    0.0793
    169.00   -0.5572    0.0678
    170.00   -0.5931    0.0571
    171.00   -0.6651    0.0475
    172.00   -0.7919    0.0388
    173.00   -0.9872    0.0312
    174.00   -1.2180    0.0245
    175.00   -1.3520    0.0189
    176.00   -1.2592    0.0142
    177.00   -0.9921    0.0106
    178.00   -0.6728    0.0081
    179.00   -0.3496    0.0065
    180.00   -0.0264    0.0060
    180.00   -0.0264    0.0060
