AeroDyn airfoil file Created with QBlade v0.963 64bit on 17.01.2019 at 13:27:42 Compatible with AeroDyn v13.0.
Polar "T1_Re0.125_M0.00_N9.0 360 M" on Foil "T1_Re0.125_M0.00_N9.0" :: generated by QBlade
1              Number of airfoil tables in this file
0              Table ID parameter
15.20          Stall angle (deg)
0              No longer used, enter zero
0              No longer used, enter zero
0              No longer used, enter zero
-2.66          Angle of attack for zero Cn for linear Cn curve (deg)
4.38994        Cn slope for zero lift for linear Cn curve (1/rad)
-0.0826        Cn at stall value for positive angle of attack for linear Cn curve
-0.2312        Cn at stall value for negative angle of attack for linear Cn curve
-10.00         Angle of attack for minimum CD (deg)
0.0143         Minimum CD value
   -180.00   -0.0495    0.0062
   -179.00   -0.0359    0.0067
   -178.00   -0.0223    0.0082
   -177.00   -0.0087    0.0107
   -176.00    0.0049    0.0143
   -175.00    0.0189    0.0188
   -174.00    0.0343    0.0243
   -173.00    0.0533    0.0308
   -172.00    0.0784    0.0383
   -171.00    0.1113    0.0468
   -170.00    0.1509    0.0562
   -169.00    0.1941    0.0666
   -168.00    0.2377    0.0778
   -167.00    0.2793    0.0900
   -166.00    0.3181    0.1031
   -165.00    0.3539    0.1171
   -164.00    0.3869    0.1320
   -163.00    0.4175    0.1477
   -162.00    0.4461    0.1642
   -161.00    0.4728    0.1815
   -160.00    0.4980    0.1996
   -159.00    0.5218    0.2185
   -158.00    0.5442    0.2381
   -157.00    0.5655    0.2584
   -156.00    0.5855    0.2794
   -155.00    0.6044    0.3010
   -154.00    0.6222    0.3233
   -153.00    0.6388    0.3462
   -152.00    0.6544    0.3697
   -151.00    0.6689    0.3937
   -150.00    0.6823    0.4182
   -149.00    0.6946    0.4432
   -148.00    0.7058    0.4686
   -147.00    0.7159    0.4945
   -146.00    0.7249    0.5207
   -145.00    0.7329    0.5473
   -144.00    0.7397    0.5742
   -143.00    0.7455    0.6014
   -142.00    0.7501    0.6289
   -141.00    0.7537    0.6565
   -140.00    0.7562    0.6844
   -139.00    0.7576    0.7124
   -138.00    0.7579    0.7405
   -137.00    0.7571    0.7686
   -136.00    0.7554    0.7968
   -135.00    0.7525    0.8251
   -134.00    0.7486    0.8532
   -133.00    0.7437    0.8813
   -132.00    0.7378    0.9093
   -131.00    0.7309    0.9372
   -130.00    0.7230    0.9648
   -129.00    0.7141    0.9923
   -128.00    0.7043    1.0195
   -127.00    0.6935    1.0464
   -126.00    0.6819    1.0730
   -125.00    0.6693    1.0992
   -124.00    0.6559    1.1250
   -123.00    0.6417    1.1505
   -122.00    0.6266    1.1754
   -121.00    0.6108    1.1999
   -120.00    0.5941    1.2238
   -119.00    0.5768    1.2472
   -118.00    0.5587    1.2700
   -117.00    0.5399    1.2922
   -116.00    0.5205    1.3137
   -115.00    0.5004    1.3345
   -114.00    0.4797    1.3547
   -113.00    0.4585    1.3740
   -112.00    0.4367    1.3927
   -111.00    0.4144    1.4105
   -110.00    0.3917    1.4275
   -109.00    0.3685    1.4437
   -108.00    0.3448    1.4590
   -107.00    0.2606    1.4734
   -106.00    0.2352    1.4869
   -105.00    0.2095    1.4994
   -104.00    0.1834    1.5110
   -103.00    0.1572    1.5216
   -102.00    0.1307    1.5312
   -101.00    0.1040    1.5398
   -100.00    0.0771    1.5473
    -99.00    0.0502    1.5538
    -98.00    0.0231    1.5593
    -97.00   -0.0040    1.5636
    -96.00   -0.0311    1.5669
    -95.00   -0.0583    1.5691
    -94.00   -0.0853    1.5701
    -93.00   -0.1123    1.5700
    -92.00   -0.1392    1.5688
    -91.00   -0.1660    1.5664
    -90.00   -0.1925    1.5629
    -89.00   -0.2189    1.5583
    -88.00   -0.2450    1.5524
    -87.00   -0.2709    1.5454
    -86.00   -0.2964    1.5373
    -85.00   -0.3216    1.5279
    -84.00   -0.3464    1.5175
    -83.00   -0.3709    1.5058
    -82.00   -0.3949    1.4930
    -81.00   -0.4184    1.4790
    -80.00   -0.4414    1.4638
    -79.00   -0.4639    1.4476
    -78.00   -0.4859    1.4301
    -77.00   -0.5073    1.4116
    -76.00   -0.5280    1.3919
    -75.00   -0.5481    1.3711
    -74.00   -0.5675    1.3492
    -73.00   -0.5862    1.3263
    -72.00   -0.6042    1.3023
    -71.00   -0.6214    1.2772
    -70.00   -0.6378    1.2511
    -69.00   -0.6534    1.2240
    -68.00   -0.6681    1.1960
    -67.00   -0.6819    1.1670
    -66.00   -0.6948    1.1371
    -65.00   -0.7067    1.1064
    -64.00   -0.7177    1.0748
    -63.00   -0.7276    1.0424
    -62.00   -0.7365    1.0093
    -61.00   -0.7444    0.9754
    -60.00   -0.7511    0.9410
    -59.00   -0.7568    0.9060
    -58.00   -0.7612    0.8705
    -57.00   -0.7645    0.8345
    -56.00   -0.7667    0.7982
    -55.00   -0.7676    0.7616
    -54.00   -0.7673    0.7248
    -53.00   -0.7657    0.6880
    -52.00   -0.7629    0.6512
    -51.00   -0.7589    0.6145
    -50.00   -0.7536    0.5780
    -49.00   -0.7470    0.5421
    -48.00   -0.7393    0.5071
    -47.00   -0.7303    0.4726
    -46.00   -0.7201    0.4389
    -45.00   -0.7088    0.4061
    -44.00   -0.6964    0.3741
    -43.00   -0.6830    0.3433
    -42.00   -0.6685    0.3137
    -41.00   -0.6532    0.2853
    -40.00   -0.6370    0.2583
    -39.00   -0.6200    0.2328
    -38.00   -0.6023    0.2088
    -37.00   -0.5841    0.1864
    -36.00   -0.5653    0.1657
    -35.00   -0.5461    0.1466
    -34.00   -0.5267    0.1291
    -33.00   -0.5069    0.1132
    -32.00   -0.4870    0.0989
    -31.00   -0.4671    0.0862
    -30.00   -0.4471    0.0749
    -29.00   -0.4272    0.0649
    -28.00   -0.4074    0.0563
    -27.00   -0.3877    0.0489
    -26.00   -0.3682    0.0425
    -25.00   -0.3489    0.0372
    -24.00   -0.3299    0.0327
    -23.00   -0.3110    0.0290
    -22.00   -0.2924    0.0259
    -21.00   -0.2740    0.0234
    -20.00   -0.2558    0.0214
    -19.00   -0.2377    0.0198
    -18.00   -0.2199    0.0185
    -17.00   -0.2022    0.0175
    -16.00   -0.1847    0.0167
    -15.00   -0.1673    0.0161
    -14.00   -0.1500    0.0156
    -13.00   -0.1327    0.0152
    -12.00   -0.1156    0.0149
    -11.00   -0.0984    0.0146
    -10.00   -0.0814    0.0143
     -9.90   -0.2445    0.0238
     -9.80   -0.4075    0.0333
     -9.70   -0.5706    0.0427
     -9.60   -0.7337    0.0522
     -9.50   -0.7371    0.0507
     -9.40   -0.7045    0.0476
     -9.30   -0.6961    0.0456
     -9.20   -0.6877    0.0432
     -9.10   -0.6780    0.0411
     -9.00   -0.6670    0.0395
     -8.90   -0.6542    0.0382
     -8.80   -0.6411    0.0369
     -8.70   -0.6274    0.0358
     -8.60   -0.6132    0.0348
     -8.50   -0.5985    0.0338
     -8.40   -0.5835    0.0330
     -8.30   -0.5677    0.0322
     -8.20   -0.5516    0.0315
     -8.10   -0.5355    0.0308
     -8.00   -0.5188    0.0302
     -7.90   -0.5015    0.0294
     -7.80   -0.4848    0.0287
     -7.70   -0.4688    0.0280
     -7.60   -0.4535    0.0272
     -7.50   -0.4394    0.0265
     -7.40   -0.4275    0.0261
     -7.30   -0.4167    0.0257
     -7.20   -0.4064    0.0253
     -7.10   -0.3975    0.0250
     -7.00   -0.3904    0.0246
     -6.90   -0.3840    0.0242
     -6.80   -0.3778    0.0238
     -6.70   -0.3720    0.0234
     -6.60   -0.3655    0.0229
     -6.50   -0.3577    0.0225
     -6.40   -0.3491    0.0221
     -6.30   -0.3417    0.0217
     -6.20   -0.3362    0.0214
     -6.10   -0.3343    0.0209
     -6.00   -0.3365    0.0204
     -5.90   -0.3429    0.0197
     -5.80   -0.3501    0.0193
     -5.70   -0.3540    0.0194
     -5.60   -0.3517    0.0199
     -5.50   -0.3415    0.0211
     -5.40   -0.3270    0.0225
     -5.30   -0.2979    0.0248
     -5.20   -0.2666    0.0268
     -5.10   -0.2361    0.0285
     -5.00   -0.2081    0.0298
     -4.90   -0.1797    0.0310
     -4.80   -0.1653    0.0312
     -4.70   -0.1593    0.0311
     -4.60   -0.1540    0.0310
     -4.50   -0.1488    0.0309
     -4.40   -0.1428    0.0308
     -4.30   -0.1336    0.0308
     -4.20   -0.1180    0.0309
     -4.10   -0.1025    0.0310
     -4.00   -0.0878    0.0312
     -3.90   -0.0748    0.0313
     -3.80   -0.0638    0.0314
     -3.70   -0.0567    0.0314
     -3.60   -0.0549    0.0314
     -3.50   -0.0579    0.0313
     -3.40   -0.0590    0.0311
     -3.30   -0.0576    0.0309
     -3.20   -0.0519    0.0308
     -3.10   -0.0404    0.0307
     -3.00   -0.0231    0.0307
     -2.90   -0.0062    0.0307
     -2.80    0.0102    0.0307
     -2.70    0.0256    0.0308
     -2.60    0.0399    0.0308
     -2.50    0.0511    0.0308
     -2.40    0.0560    0.0308
     -2.30    0.0525    0.0309
     -2.20    0.0402    0.0309
     -2.10    0.0271    0.0309
     -2.00    0.0159    0.0308
     -1.90    0.0104    0.0308
     -1.80    0.0131    0.0307
     -1.70    0.0248    0.0306
     -1.60    0.0378    0.0306
     -1.50    0.0512    0.0306
     -1.40    0.0645    0.0306
     -1.30    0.0776    0.0305
     -1.20    0.0906    0.0305
     -1.10    0.1036    0.0304
     -1.00    0.1164    0.0304
     -0.90    0.1251    0.0304
     -0.80    0.1249    0.0305
     -0.70    0.1175    0.0306
     -0.60    0.1065    0.0307
     -0.50    0.0940    0.0309
     -0.40    0.0849    0.0309
     -0.30    0.0847    0.0309
     -0.20    0.0918    0.0309
     -0.10    0.1029    0.0307
      0.00    0.1163    0.0306
      0.10    0.1307    0.0304
      0.20    0.1460    0.0302
      0.30    0.1618    0.0301
      0.40    0.1776    0.0301
      0.50    0.1827    0.0301
      0.60    0.1825    0.0303
      0.70    0.1798    0.0305
      0.80    0.1758    0.0306
      0.90    0.1712    0.0308
      1.00    0.1775    0.0308
      1.10    0.1894    0.0307
      1.20    0.2042    0.0305
      1.30    0.2204    0.0304
      1.40    0.2372    0.0302
      1.50    0.2541    0.0301
      1.60    0.2709    0.0300
      1.70    0.2874    0.0299
      1.80    0.2915    0.0300
      1.90    0.2927    0.0302
      2.00    0.2929    0.0304
      2.10    0.2928    0.0306
      2.20    0.2926    0.0307
      2.30    0.3048    0.0306
      2.40    0.3204    0.0304
      2.50    0.3375    0.0302
      2.60    0.3554    0.0300
      2.70    0.3736    0.0298
      2.80    0.3921    0.0296
      2.90    0.4103    0.0294
      3.00    0.4181    0.0294
      3.10    0.4232    0.0295
      3.20    0.4271    0.0295
      3.30    0.4308    0.0296
      3.40    0.4348    0.0295
      3.50    0.4493    0.0292
      3.60    0.4666    0.0288
      3.70    0.4852    0.0284
      3.80    0.5043    0.0280
      3.90    0.5231    0.0276
      4.00    0.5392    0.0273
      4.10    0.5493    0.0272
      4.20    0.5570    0.0271
      4.30    0.5633    0.0271
      4.40    0.5688    0.0270
      4.50    0.5768    0.0269
      4.60    0.5906    0.0266
      4.70    0.6067    0.0262
      4.80    0.6240    0.0258
      4.90    0.6422    0.0254
      5.00    0.6588    0.0251
      5.10    0.6703    0.0249
      5.20    0.6796    0.0247
      5.30    0.6879    0.0246
      5.40    0.6954    0.0245
      5.50    0.7046    0.0243
      5.60    0.7192    0.0239
      5.70    0.7362    0.0234
      5.80    0.7514    0.0230
      5.90    0.7636    0.0227
      6.00    0.7741    0.0224
      6.10    0.7834    0.0221
      6.20    0.7919    0.0219
      6.30    0.8032    0.0215
      6.40    0.8148    0.0212
      6.50    0.8257    0.0209
      6.60    0.8365    0.0207
      6.70    0.8476    0.0204
      6.80    0.8558    0.0202
      6.90    0.8652    0.0201
      7.00    0.8760    0.0198
      7.10    0.8855    0.0197
      7.20    0.8927    0.0197
      7.30    0.9009    0.0196
      7.40    0.9085    0.0196
      7.50    0.9144    0.0197
      7.60    0.9204    0.0198
      7.70    0.9257    0.0199
      7.80    0.9295    0.0201
      7.90    0.9335    0.0202
      8.00    0.9373    0.0204
      8.10    0.9403    0.0206
      8.20    0.9438    0.0209
      8.30    0.9479    0.0211
      8.40    0.9517    0.0214
      8.50    0.9554    0.0216
      8.60    0.9592    0.0219
      8.70    0.9632    0.0222
      8.80    0.9669    0.0225
      8.90    0.9707    0.0228
      9.00    0.9749    0.0231
      9.10    0.9796    0.0234
      9.20    0.9850    0.0237
      9.30    0.9907    0.0240
      9.40    0.9970    0.0243
      9.50    1.0040    0.0247
      9.60    1.0107    0.0250
      9.70    1.0174    0.0254
      9.80    1.0243    0.0257
      9.90    1.0310    0.0261
     10.00    1.0372    0.0265
     10.10    1.0437    0.0269
     10.20    1.0496    0.0273
     10.30    1.0563    0.0277
     10.40    1.0632    0.0282
     10.50    1.0699    0.0286
     10.60    1.0764    0.0291
     10.70    1.0828    0.0296
     10.80    1.0878    0.0300
     10.90    1.0927    0.0305
     11.00    1.0991    0.0310
     11.10    1.1048    0.0315
     11.20    1.1101    0.0321
     11.30    1.1151    0.0326
     11.40    1.1196    0.0331
     11.50    1.1223    0.0337
     11.60    1.1254    0.0342
     11.70    1.1303    0.0348
     11.80    1.1349    0.0353
     11.90    1.1392    0.0359
     12.00    1.1435    0.0365
     12.10    1.1475    0.0371
     12.20    1.1498    0.0377
     12.30    1.1525    0.0383
     12.40    1.1555    0.0389
     12.50    1.1609    0.0395
     12.60    1.1658    0.0402
     12.70    1.1703    0.0408
     12.80    1.1744    0.0415
     12.90    1.1780    0.0422
     13.00    1.1791    0.0430
     13.10    1.1805    0.0437
     13.20    1.1821    0.0444
     13.30    1.1839    0.0451
     13.40    1.1860    0.0457
     13.50    1.1899    0.0464
     13.60    1.1933    0.0472
     13.70    1.1960    0.0479
     13.80    1.1981    0.0488
     13.90    1.1995    0.0496
     14.00    1.1987    0.0505
     14.10    1.1983    0.0514
     14.20    1.1983    0.0523
     14.30    1.1987    0.0531
     14.40    1.1994    0.0540
     14.50    1.2003    0.0548
     14.60    1.2015    0.0557
     14.70    1.2031    0.0565
     14.80    1.2057    0.0574
     14.90    1.2080    0.0584
     15.00    1.2094    0.0595
     15.10    1.2100    0.0607
     15.20    1.2093    0.0620
     15.30    1.2067    0.0634
     15.40    1.2034    0.0647
     15.50    1.1997    0.0660
     15.60    1.1958    0.0675
     15.70    1.1915    0.0689
     15.80    1.1869    0.0705
     15.90    1.1818    0.0721
     16.00    1.1763    0.0738
     16.10    1.1703    0.0755
     16.20    1.1638    0.0774
     16.30    1.1567    0.0794
     16.40    1.1492    0.0815
     16.50    1.1411    0.0837
     16.60    1.1320    0.0861
     16.70    1.1219    0.0887
     16.80    1.1100    0.0917
     16.90    1.0952    0.0952
     17.00    1.0716    0.1004
     17.10    1.0107    0.1148
     17.20    0.9506    0.1294
     17.30    0.8929    0.1440
     17.40    0.8389    0.1582
     17.50    0.7952    0.1708
     17.60    0.7906    0.1743
     17.70    0.7875    0.1774
     17.80    0.7857    0.1803
     17.90    0.7858    0.1829
     18.00    0.7783    0.1882
     18.10    0.7722    0.1931
     18.20    0.7679    0.1978
     18.30    0.7664    0.2022
     18.40    0.7652    0.2076
     18.50    0.7723    0.2102
     18.60    0.7783    0.2128
     18.70    0.7827    0.2156
     18.80    0.7841    0.2184
     18.90    0.7836    0.2200
     19.00    0.7817    0.2214
     19.10    0.7769    0.2223
     19.20    0.7723    0.2232
     19.30    0.7681    0.2241
     19.40    0.7649    0.2251
     19.50    0.7607    0.2232
     19.60    0.7611    0.2247
     19.70    0.7629    0.2262
     19.80    0.7652    0.2277
     19.90    0.7679    0.2291
     20.00    0.7710    0.2305
     21.00    0.5262    0.1356
     22.00    0.5472    0.1492
     23.00    0.5680    0.1636
     24.00    0.5884    0.1787
     25.00    0.6085    0.1945
     26.00    0.6283    0.2111
     27.00    0.6477    0.2284
     28.00    0.6667    0.2464
     29.00    0.6852    0.2650
     30.00    0.7032    0.2844
     31.00    0.7208    0.3044
     32.00    0.7378    0.3251
     33.00    0.7543    0.3463
     34.00    0.7701    0.3682
     35.00    0.7853    0.3906
     36.00    0.7999    0.4136
     37.00    0.8139    0.4370
     38.00    0.8271    0.4610
     39.00    0.8396    0.4854
     40.00    0.8513    0.5103
     41.00    0.8623    0.5355
     42.00    0.8724    0.5611
     43.00    0.8818    0.5871
     44.00    0.8903    0.6133
     45.00    0.8980    0.6398
     46.00    0.9048    0.6665
     47.00    0.9107    0.6935
     48.00    0.9156    0.7205
     49.00    0.9197    0.7477
     50.00    0.9228    0.7750
     51.00    0.9250    0.8023
     52.00    0.9263    0.8296
     53.00    0.9265    0.8568
     54.00    0.9258    0.8840
     55.00    0.9241    0.9111
     56.00    0.9214    0.9380
     57.00    0.9177    0.9648
     58.00    0.9130    0.9913
     59.00    0.9073    1.0176
     60.00    0.9007    1.0435
     61.00    0.8930    1.0692
     62.00    0.8843    1.0944
     63.00    0.8747    1.1193
     64.00    0.8640    1.1437
     65.00    0.8524    1.1676
     66.00    0.8399    1.1911
     67.00    0.8263    1.2139
     68.00    0.8118    1.2363
     69.00    0.7964    1.2580
     70.00    0.7801    1.2791
     71.00    0.7629    1.2995
     72.00    0.7448    1.3192
     73.00    0.7258    1.3382
     74.00    0.7060    1.3565
     75.00    0.6853    1.3740
     76.00    0.6639    1.3906
     77.00    0.6417    1.4065
     78.00    0.6187    1.4216
     79.00    0.5950    1.4357
     80.00    0.5706    1.4490
     81.00    0.5455    1.4614
     82.00    0.5198    1.4729
     83.00    0.4935    1.4835
     84.00    0.4666    1.4931
     85.00    0.4392    1.5017
     86.00    0.4112    1.5094
     87.00    0.3828    1.5161
     88.00    0.3540    1.5219
     89.00    0.3247    1.5266
     90.00    0.2951    1.5303
     91.00    0.2651    1.5330
     92.00    0.2349    1.5347
     93.00    0.2044    1.5354
     94.00    0.1737    1.5351
     95.00    0.1428    1.5338
     96.00    0.1118    1.5314
     97.00    0.0808    1.5281
     98.00    0.0496    1.5237
     99.00    0.0185    1.5184
    100.00   -0.0125    1.5121
    101.00   -0.0435    1.5047
    102.00   -0.0744    1.4965
    103.00   -0.2646    1.4872
    104.00   -0.2957    1.4771
    105.00   -0.3264    1.4659
    106.00   -0.3567    1.4539
    107.00   -0.3866    1.4410
    108.00   -0.4160    1.4272
    109.00   -0.4449    1.4125
    110.00   -0.4733    1.3970
    111.00   -0.5011    1.3806
    112.00   -0.5282    1.3635
    113.00   -0.5547    1.3456
    114.00   -0.5804    1.3269
    115.00   -0.6055    1.3075
    116.00   -0.6297    1.2874
    117.00   -0.6531    1.2666
    118.00   -0.6757    1.2452
    119.00   -0.6975    1.2232
    120.00   -0.7183    1.2005
    121.00   -0.7381    1.1773
    122.00   -0.7571    1.1536
    123.00   -0.7750    1.1294
    124.00   -0.7919    1.1047
    125.00   -0.8077    1.0796
    126.00   -0.8225    1.0541
    127.00   -0.8362    1.0282
    128.00   -0.8488    1.0020
    129.00   -0.8603    0.9754
    130.00   -0.8706    0.9487
    131.00   -0.8798    0.9217
    132.00   -0.8878    0.8945
    133.00   -0.8946    0.8671
    134.00   -0.9003    0.8396
    135.00   -0.9047    0.8121
    136.00   -0.9080    0.7844
    137.00   -0.9100    0.7568
    138.00   -0.9109    0.7292
    139.00   -0.9105    0.7017
    140.00   -0.9090    0.6742
    141.00   -0.9062    0.6469
    142.00   -0.9023    0.6197
    143.00   -0.8973    0.5928
    144.00   -0.8911    0.5661
    145.00   -0.8837    0.5396
    146.00   -0.8753    0.5135
    147.00   -0.8659    0.4877
    148.00   -0.8554    0.4622
    149.00   -0.8440    0.4372
    150.00   -0.8316    0.4126
    151.00   -0.8185    0.3885
    152.00   -0.8047    0.3649
    153.00   -0.7903    0.3418
    154.00   -0.7756    0.3193
    155.00   -0.7609    0.2973
    156.00   -0.7465    0.2760
    157.00   -0.7332    0.2554
    158.00   -0.7220    0.2354
    159.00   -0.7149    0.2161
    160.00   -0.7158    0.1975
    161.00   -0.7333    0.1797
    162.00   -0.7935    0.1626
    163.00   -1.0176    0.1463
    164.00   -7.9143    0.1309
    165.00    0.1830    0.1163
    166.00   -0.1045    0.1025
    167.00   -0.1740    0.0896
    168.00   -0.1927    0.0776
    169.00   -0.1924    0.0665
    170.00   -0.1838    0.0563
    171.00   -0.1717    0.0470
    172.00   -0.1583    0.0387
    173.00   -0.1447    0.0313
    174.00   -0.1311    0.0249
    175.00   -0.1175    0.0194
    176.00   -0.1039    0.0150
    177.00   -0.0903    0.0115
    178.00   -0.0767    0.0090
    179.00   -0.0631    0.0075
    180.00   -0.0495    0.0070
    180.00   -0.0495    0.0062
