AeroDyn airfoil file Created with QBlade v0.963 64bit on 17.01.2019 at 13:27:41 Compatible with AeroDyn v13.0.
Polar "T1_Re0.075_M0.00_N9.0 360 M" on Foil "T1_Re0.075_M0.00_N9.0" :: generated by QBlade
1              Number of airfoil tables in this file
0              Table ID parameter
13.00          Stall angle (deg)
0              No longer used, enter zero
0              No longer used, enter zero
0              No longer used, enter zero
-0.22          Angle of attack for zero Cn for linear Cn curve (deg)
3.72090        Cn slope for zero lift for linear Cn curve (1/rad)
-0.8578        Cn at stall value for positive angle of attack for linear Cn curve
-0.8690        Cn at stall value for negative angle of attack for linear Cn curve
-4.70          Angle of attack for minimum CD (deg)
0.0271         Minimum CD value
   -180.00   -0.0029    0.0067
   -179.00    0.0003    0.0072
   -178.00    0.0035    0.0085
   -177.00    0.0067    0.0107
   -176.00    0.0099    0.0138
   -175.00    0.0131    0.0178
   -174.00    0.0167    0.0226
   -173.00    0.0225    0.0283
   -172.00    0.0343    0.0349
   -171.00    0.0567    0.0423
   -170.00    0.0924    0.0505
   -169.00    0.1392    0.0595
   -168.00    0.1912    0.0694
   -167.00    0.2427    0.0800
   -166.00    0.2903    0.0914
   -165.00    0.3331    0.1036
   -164.00    0.3712    0.1166
   -163.00    0.4055    0.1302
   -162.00    0.4366    0.1446
   -161.00    0.4652    0.1596
   -160.00    0.4916    0.1754
   -159.00    0.5162    0.1918
   -158.00    0.5393    0.2088
   -157.00    0.5610    0.2264
   -156.00    0.5815    0.2446
   -155.00    0.6007    0.2634
   -154.00    0.6189    0.2827
   -153.00    0.6359    0.3025
   -152.00    0.6519    0.3228
   -151.00    0.6668    0.3435
   -150.00    0.6807    0.3647
   -149.00    0.6935    0.3863
   -148.00    0.7053    0.4083
   -147.00    0.7160    0.4306
   -146.00    0.7257    0.4532
   -145.00    0.7343    0.4761
   -144.00    0.7419    0.4992
   -143.00    0.7484    0.5226
   -142.00    0.7539    0.5462
   -141.00    0.7582    0.5700
   -140.00    0.7615    0.5938
   -139.00    0.7637    0.6178
   -138.00    0.7649    0.6419
   -137.00    0.7650    0.6660
   -136.00    0.7640    0.6901
   -135.00    0.7619    0.7141
   -134.00    0.7588    0.7381
   -133.00    0.7546    0.7621
   -132.00    0.7494    0.7859
   -131.00    0.7432    0.8096
   -130.00    0.7359    0.8330
   -129.00    0.7277    0.8563
   -128.00    0.7184    0.8793
   -127.00    0.7081    0.9021
   -126.00    0.6969    0.9245
   -125.00    0.6848    0.9466
   -124.00    0.6717    0.9684
   -123.00    0.6577    0.9897
   -122.00    0.6428    1.0107
   -121.00    0.6271    1.0312
   -120.00    0.6105    1.0512
   -119.00    0.5931    1.0707
   -118.00    0.5749    1.0897
   -117.00    0.5560    1.1081
   -116.00    0.5363    1.1259
   -115.00    0.5160    1.1432
   -114.00    0.4949    1.1598
   -113.00    0.4733    1.1758
   -112.00    0.4510    1.1911
   -111.00    0.4281    1.2057
   -110.00    0.4047    1.2195
   -109.00    0.3807    1.2327
   -108.00    0.3563    1.2451
   -107.00    0.3315    1.2567
   -106.00    0.3062    1.2676
   -105.00    0.2289    1.2776
   -104.00    0.2038    1.2868
   -103.00    0.1785    1.2952
   -102.00    0.1530    1.3028
   -101.00    0.1274    1.3095
   -100.00    0.1017    1.3153
    -99.00    0.0759    1.3202
    -98.00    0.0501    1.3243
    -97.00    0.0243    1.3275
    -96.00   -0.0014    1.3298
    -95.00   -0.0271    1.3312
    -94.00   -0.0526    1.3317
    -93.00   -0.0780    1.3313
    -92.00   -0.1031    1.3299
    -91.00   -0.1281    1.3277
    -90.00   -0.1527    1.3246
    -89.00   -0.1771    1.3206
    -88.00   -0.2011    1.3156
    -87.00   -0.2247    1.3098
    -86.00   -0.2480    1.3031
    -85.00   -0.2708    1.2955
    -84.00   -0.2931    1.2870
    -83.00   -0.3149    1.2777
    -82.00   -0.3362    1.2676
    -81.00   -0.3569    1.2566
    -80.00   -0.3771    1.2449
    -79.00   -0.3966    1.2327
    -78.00   -0.4155    1.2197
    -77.00   -0.4337    1.2059
    -76.00   -0.4512    1.1914
    -75.00   -0.4680    1.1762
    -74.00   -0.4841    1.1603
    -73.00   -0.4994    1.1436
    -72.00   -0.5140    1.1264
    -71.00   -0.5277    1.1084
    -70.00   -0.5407    1.0899
    -69.00   -0.5528    1.0708
    -68.00   -0.5641    1.0511
    -67.00   -0.5746    1.0309
    -66.00   -0.5842    1.0102
    -65.00   -0.5929    0.9891
    -64.00   -0.6007    0.9674
    -63.00   -0.6077    0.9454
    -62.00   -0.6138    0.9230
    -61.00   -0.6190    0.9003
    -60.00   -0.6233    0.8772
    -59.00   -0.6267    0.8539
    -58.00   -0.6293    0.8303
    -57.00   -0.6309    0.8065
    -56.00   -0.6317    0.7826
    -55.00   -0.6316    0.7585
    -54.00   -0.6306    0.7343
    -53.00   -0.6288    0.7100
    -52.00   -0.6262    0.6857
    -51.00   -0.6227    0.6615
    -50.00   -0.6184    0.6372
    -49.00   -0.6133    0.6131
    -48.00   -0.6075    0.5891
    -47.00   -0.6009    0.5652
    -46.00   -0.5936    0.5416
    -45.00   -0.5855    0.5181
    -44.00   -0.5768    0.4950
    -43.00   -0.5675    0.4721
    -42.00   -0.5575    0.4495
    -41.00   -0.5469    0.4274
    -40.00   -0.5357    0.4056
    -39.00   -0.5241    0.3842
    -38.00   -0.5119    0.3634
    -37.00   -0.4993    0.3429
    -36.00   -0.4862    0.3231
    -35.00   -0.4728    0.3037
    -34.00   -0.4590    0.2849
    -33.00   -0.4449    0.2667
    -32.00   -0.4306    0.2491
    -31.00   -0.4160    0.2321
    -30.00   -0.4012    0.2158
    -29.00   -0.3863    0.2001
    -28.00   -0.3713    0.1851
    -27.00   -0.3562    0.1707
    -26.00   -0.3411    0.1571
    -25.00   -0.3260    0.1441
    -24.00   -0.3110    0.1318
    -23.00   -0.2961    0.1202
    -22.00   -0.2813    0.1093
    -21.00   -0.2666    0.0990
    -20.00   -0.2522    0.0894
    -19.00   -0.2380    0.0805
    -18.00   -0.2241    0.0723
    -17.00   -0.2105    0.0647
    -16.00   -0.1971    0.0577
    -15.00   -0.1842    0.0513
    -14.00   -0.1715    0.0454
    -13.00   -0.1593    0.0402
    -12.00   -0.1475    0.0354
    -11.00   -0.1361    0.0312
    -10.00   -0.7529    0.0626
     -9.90   -0.7661    0.0624
     -9.80   -0.7804    0.0629
     -9.70   -0.7944    0.0632
     -9.60   -0.8073    0.0631
     -9.50   -0.8194    0.0627
     -9.40   -0.8534    0.0609
     -9.30   -0.8611    0.0605
     -9.20   -0.8664    0.0602
     -9.10   -0.8667    0.0600
     -9.00   -0.8639    0.0595
     -8.90   -0.8590    0.0585
     -8.80   -0.8526    0.0571
     -8.70   -0.8447    0.0555
     -8.60   -0.8378    0.0536
     -8.50   -0.8310    0.0519
     -8.40   -0.8239    0.0505
     -8.30   -0.8164    0.0493
     -8.20   -0.8084    0.0481
     -8.10   -0.7996    0.0469
     -8.00   -0.7901    0.0459
     -7.90   -0.7805    0.0449
     -7.80   -0.7707    0.0440
     -7.70   -0.7608    0.0432
     -7.60   -0.7510    0.0425
     -7.50   -0.7410    0.0419
     -7.40   -0.7305    0.0413
     -7.30   -0.7185    0.0405
     -7.20   -0.7056    0.0397
     -7.10   -0.6929    0.0388
     -7.00   -0.6804    0.0381
     -6.90   -0.6689    0.0373
     -6.80   -0.6597    0.0369
     -6.70   -0.6518    0.0366
     -6.60   -0.6433    0.0363
     -6.50   -0.6345    0.0360
     -6.40   -0.6250    0.0356
     -6.30   -0.6146    0.0351
     -6.20   -0.6037    0.0347
     -6.10   -0.5934    0.0343
     -6.00   -0.5832    0.0339
     -5.90   -0.5741    0.0336
     -5.80   -0.5666    0.0333
     -5.70   -0.5604    0.0330
     -5.60   -0.5556    0.0327
     -5.50   -0.5524    0.0324
     -5.40   -0.5495    0.0320
     -5.30   -0.5467    0.0315
     -5.20   -0.5454    0.0308
     -5.10   -0.5466    0.0298
     -5.00   -0.5484    0.0295
     -4.90   -0.5494    0.0299
     -4.80   -0.5477    0.0310
     -4.70   -0.5325    0.0342
     -4.60   -0.5017    0.0381
     -4.50   -0.4572    0.0416
     -4.40   -0.4252    0.0445
     -4.30   -0.3925    0.0467
     -4.20   -0.3600    0.0472
     -4.10   -0.3336    0.0474
     -4.00   -0.3176    0.0473
     -3.90   -0.2899    0.0472
     -3.80   -0.2680    0.0472
     -3.70   -0.2671    0.0472
     -3.60   -0.2764    0.0470
     -3.50   -0.2775    0.0468
     -3.40   -0.2716    0.0467
     -3.30   -0.2586    0.0465
     -3.20   -0.2337    0.0464
     -3.10   -0.2046    0.0463
     -3.00   -0.1864    0.0462
     -2.90   -0.1770    0.0461
     -2.80   -0.1879    0.0460
     -2.70   -0.1928    0.0458
     -2.60   -0.1934    0.0457
     -2.50   -0.1885    0.0456
     -2.40   -0.1792    0.0454
     -2.30   -0.1528    0.0453
     -2.20   -0.1345    0.0453
     -2.10   -0.1218    0.0452
     -2.00   -0.1150    0.0451
     -1.90   -0.1117    0.0451
     -1.80   -0.1116    0.0450
     -1.70   -0.1155    0.0449
     -1.60   -0.1121    0.0448
     -1.50   -0.1079    0.0447
     -1.40   -0.1021    0.0446
     -1.30   -0.0935    0.0445
     -1.20   -0.0807    0.0445
     -1.10   -0.0745    0.0445
     -1.00   -0.0678    0.0444
     -0.90   -0.0604    0.0444
     -0.80   -0.0519    0.0444
     -0.70   -0.0415    0.0444
     -0.60   -0.0285    0.0443
     -0.50   -0.0144    0.0443
     -0.40   -0.0148    0.0443
     -0.30   -0.0274    0.0441
     -0.20   -0.0412    0.0440
     -0.10   -0.0559    0.0439
      0.00   -0.0693    0.0438
      0.10   -0.0652    0.0438
      0.20   -0.0457    0.0439
      0.30   -0.0209    0.0440
      0.40    0.0092    0.0441
      0.50    0.0365    0.0442
      0.60    0.0523    0.0443
      0.70    0.0595    0.0444
      0.80    0.0585    0.0445
      0.90    0.0492    0.0445
      1.00    0.0398    0.0445
      1.10    0.0395    0.0444
      1.20    0.0467    0.0444
      1.30    0.0621    0.0444
      1.40    0.0723    0.0445
      1.50    0.0745    0.0445
      1.60    0.0756    0.0445
      1.70    0.0750    0.0446
      1.80    0.0711    0.0446
      1.90    0.0774    0.0447
      2.00    0.0968    0.0448
      2.10    0.1225    0.0450
      2.20    0.1547    0.0451
      2.30    0.1750    0.0452
      2.40    0.1824    0.0454
      2.50    0.1853    0.0455
      2.60    0.1839    0.0456
      2.70    0.1775    0.0457
      2.80    0.1850    0.0457
      2.90    0.2076    0.0457
      3.00    0.2377    0.0457
      3.10    0.2538    0.0457
      3.20    0.2547    0.0458
      3.30    0.2536    0.0459
      3.40    0.2509    0.0460
      3.50    0.2451    0.0461
      3.60    0.2570    0.0461
      3.70    0.2875    0.0460
      3.80    0.3240    0.0458
      3.90    0.3476    0.0458
      4.00    0.3573    0.0459
      4.10    0.3656    0.0461
      4.20    0.3726    0.0462
      4.30    0.3779    0.0462
      4.40    0.4009    0.0459
      4.50    0.4429    0.0452
      4.60    0.4671    0.0448
      4.70    0.4725    0.0448
      4.80    0.4757    0.0449
      4.90    0.4759    0.0450
      5.00    0.4725    0.0451
      5.10    0.4896    0.0446
      5.20    0.5277    0.0437
      5.30    0.5681    0.0426
      5.40    0.5933    0.0420
      5.50    0.6027    0.0419
      5.60    0.6108    0.0418
      5.70    0.6182    0.0417
      5.80    0.6268    0.0414
      5.90    0.6517    0.0406
      6.00    0.6933    0.0391
      6.10    0.7055    0.0388
      6.20    0.7159    0.0385
      6.30    0.7249    0.0383
      6.40    0.7347    0.0379
      6.50    0.7456    0.0374
      6.60    0.7821    0.0359
      6.70    0.8084    0.0349
      6.80    0.8331    0.0339
      6.90    0.8585    0.0329
      7.00    0.8807    0.0320
      7.10    0.8990    0.0314
      7.20    0.9264    0.0303
      7.30    0.9528    0.0293
      7.40    0.9711    0.0288
      7.50    0.9889    0.0284
      7.60    1.0074    0.0280
      7.70    1.0229    0.0279
      7.80    1.0363    0.0279
      7.90    1.0473    0.0279
      8.00    1.0517    0.0281
      8.10    1.0570    0.0282
      8.20    1.0613    0.0284
      8.30    1.0607    0.0286
      8.40    1.0595    0.0288
      8.50    1.0576    0.0289
      8.60    1.0539    0.0291
      8.70    1.0503    0.0293
      8.80    1.0494    0.0294
      8.90    1.0475    0.0296
      9.00    1.0450    0.0297
      9.10    1.0426    0.0299
      9.20    1.0391    0.0301
      9.30    1.0364    0.0303
      9.40    1.0397    0.0305
      9.50    1.0444    0.0309
      9.60    1.0499    0.0313
      9.70    1.0558    0.0316
      9.80    1.0616    0.0320
      9.90    1.0683    0.0325
     10.00    1.0750    0.0329
     10.10    1.0816    0.0334
     10.20    1.0878    0.0339
     10.30    1.0935    0.0344
     10.40    1.0969    0.0348
     10.50    1.1035    0.0353
     10.60    1.1095    0.0358
     10.70    1.1148    0.0363
     10.80    1.1193    0.0368
     10.90    1.1228    0.0374
     11.00    1.1256    0.0379
     11.10    1.1326    0.0385
     11.20    1.1391    0.0391
     11.30    1.1449    0.0398
     11.40    1.1496    0.0405
     11.50    1.1526    0.0412
     11.60    1.1528    0.0419
     11.70    1.1558    0.0425
     11.80    1.1622    0.0432
     11.90    1.1678    0.0439
     12.00    1.1722    0.0446
     12.10    1.1748    0.0454
     12.20    1.1748    0.0463
     12.30    1.1714    0.0470
     12.40    1.1696    0.0477
     12.50    1.1703    0.0483
     12.60    1.1763    0.0492
     12.70    1.1816    0.0500
     12.80    1.1859    0.0509
     12.90    1.1883    0.0519
     13.00    1.1879    0.0531
     13.10    1.1817    0.0542
     13.20    1.1755    0.0553
     13.30    1.1693    0.0566
     13.40    1.1631    0.0579
     13.50    1.1568    0.0592
     13.60    1.1504    0.0607
     13.70    1.1439    0.0621
     13.80    1.1373    0.0636
     13.90    1.1310    0.0651
     14.00    1.1256    0.0666
     14.10    1.1288    0.0675
     14.20    1.1324    0.0686
     14.30    1.1346    0.0700
     14.40    1.1351    0.0715
     14.50    1.1330    0.0732
     14.60    1.1205    0.0756
     14.70    1.1055    0.0781
     14.80    1.0895    0.0807
     14.90    1.0451    0.0890
     15.00    0.9727    0.1027
     15.10    0.9024    0.1166
     15.20    0.8348    0.1306
     15.30    0.7705    0.1445
     15.40    0.7371    0.1528
     15.50    0.7350    0.1557
     15.60    0.7346    0.1584
     15.70    0.7362    0.1609
     15.80    0.7333    0.1677
     15.90    0.7292    0.1742
     16.00    0.7223    0.1801
     16.10    0.7101    0.1849
     16.20    0.6960    0.1892
     16.30    0.6870    0.1888
     16.40    0.6799    0.1884
     16.50    0.6768    0.1884
     16.60    0.6813    0.1894
     16.70    0.6960    0.1927
     16.80    0.7100    0.1961
     16.90    0.7226    0.1996
     17.00    0.7331    0.2029
     17.10    0.7390    0.2058
     17.20    0.7326    0.2059
     17.30    0.7242    0.2054
     17.40    0.7164    0.2047
     17.50    0.7098    0.2042
     17.60    0.7053    0.2039
     17.70    0.7044    0.2045
     17.80    0.7069    0.2056
     17.90    0.7107    0.2070
     18.00    0.7156    0.2085
     18.10    0.7216    0.2102
     18.20    0.7292    0.2123
     18.30    0.7393    0.2153
     18.40    0.7488    0.2188
     18.50    0.7575    0.2226
     18.60    0.7651    0.2268
     18.70    0.7697    0.2303
     18.80    0.7698    0.2325
     18.90    0.7674    0.2335
     19.00    0.7622    0.2332
     19.10    0.7556    0.2321
     19.20    0.7497    0.2313
     19.30    0.7454    0.2308
     19.40    0.7434    0.2311
     19.50    0.7411    0.2296
     19.60    0.7418    0.2307
     19.70    0.7436    0.2320
     19.80    0.7459    0.2334
     19.90    0.7487    0.2349
     20.00    0.7520    0.2363
     21.00    0.7518    0.3244
     22.00    0.7571    0.3445
     23.00    0.7625    0.3651
     24.00    0.7681    0.3861
     25.00    0.7737    0.4075
     26.00    0.7792    0.4293
     27.00    0.7846    0.4515
     28.00    0.7898    0.4741
     29.00    0.7948    0.4970
     30.00    0.7995    0.5202
     31.00    0.8038    0.5438
     32.00    0.8079    0.5676
     33.00    0.8115    0.5917
     34.00    0.8147    0.6160
     35.00    0.8175    0.6406
     36.00    0.8198    0.6653
     37.00    0.8217    0.6902
     38.00    0.8230    0.7153
     39.00    0.8239    0.7404
     40.00    0.8241    0.7657
     41.00    0.8239    0.7910
     42.00    0.8230    0.8163
     43.00    0.8216    0.8417
     44.00    0.8196    0.8670
     45.00    0.8170    0.8923
     46.00    0.8138    0.9175
     47.00    0.8100    0.9427
     48.00    0.8056    0.9676
     49.00    0.8005    0.9925
     50.00    0.7948    1.0171
     51.00    0.7885    1.0415
     52.00    0.7815    1.0657
     53.00    0.7739    1.0896
     54.00    0.7657    1.1132
     55.00    0.7568    1.1365
     56.00    0.7473    1.1595
     57.00    0.7371    1.1820
     58.00    0.7263    1.2042
     59.00    0.7148    1.2259
     60.00    0.7028    1.2471
     61.00    0.6901    1.2679
     62.00    0.6768    1.2882
     63.00    0.6629    1.3079
     64.00    0.6483    1.3271
     65.00    0.6332    1.3457
     66.00    0.6175    1.3636
     67.00    0.6013    1.3810
     68.00    0.5844    1.3977
     69.00    0.5670    1.4137
     70.00    0.5491    1.4291
     71.00    0.5306    1.4437
     72.00    0.5117    1.4576
     73.00    0.4922    1.4708
     74.00    0.4722    1.4832
     75.00    0.4518    1.4949
     76.00    0.4310    1.5057
     77.00    0.4097    1.5157
     78.00    0.3880    1.5250
     79.00    0.3659    1.5333
     80.00    0.3434    1.5409
     81.00    0.3206    1.5476
     82.00    0.2974    1.5534
     83.00    0.2739    1.5583
     84.00    0.2502    1.5624
     85.00    0.2262    1.5656
     86.00    0.2019    1.5679
     87.00    0.1774    1.5693
     88.00    0.1527    1.5698
     89.00    0.1279    1.5694
     90.00    0.1029    1.5681
     91.00    0.0778    1.5660
     92.00    0.0526    1.5629
     93.00    0.0273    1.5589
     94.00    0.0020    1.5540
     95.00   -0.0233    1.5483
     96.00   -0.0486    1.5416
     97.00   -0.0738    1.5341
     98.00   -0.0990    1.5257
     99.00   -0.1240    1.5165
    100.00   -0.1490    1.5064
    101.00   -0.1738    1.4955
    102.00   -0.1983    1.4837
    103.00   -0.2227    1.4711
    104.00   -0.2280    1.4578
    105.00   -0.2514    1.4436
    106.00   -0.2746    1.4287
    107.00   -0.2975    1.4130
    108.00   -0.3200    1.3966
    109.00   -0.3422    1.3795
    110.00   -0.3640    1.3617
    111.00   -0.3854    1.3432
    112.00   -0.4063    1.3241
    113.00   -0.4268    1.3043
    114.00   -0.4467    1.2838
    115.00   -0.4662    1.2628
    116.00   -0.4850    1.2413
    117.00   -0.5033    1.2192
    118.00   -0.5210    1.1966
    119.00   -0.5380    1.1735
    120.00   -0.5544    1.1500
    121.00   -0.5701    1.1260
    122.00   -0.5851    1.1017
    123.00   -0.5994    1.0770
    124.00   -0.6129    1.0519
    125.00   -0.6257    1.0266
    126.00   -0.6376    1.0009
    127.00   -0.6487    0.9750
    128.00   -0.6590    0.9489
    129.00   -0.6685    0.9226
    130.00   -0.6771    0.8961
    131.00   -0.6848    0.8695
    132.00   -0.6917    0.8429
    133.00   -0.6976    0.8161
    134.00   -0.7026    0.7893
    135.00   -0.7067    0.7625
    136.00   -0.7098    0.7358
    137.00   -0.7121    0.7091
    138.00   -0.7133    0.6825
    139.00   -0.7137    0.6560
    140.00   -0.7130    0.6297
    141.00   -0.7115    0.6036
    142.00   -0.7089    0.5776
    143.00   -0.7055    0.5520
    144.00   -0.7010    0.5266
    145.00   -0.6957    0.5015
    146.00   -0.6895    0.4768
    147.00   -0.6823    0.4524
    148.00   -0.6743    0.4284
    149.00   -0.6654    0.4048
    150.00   -0.6557    0.3817
    151.00   -0.6453    0.3591
    152.00   -0.6341    0.3370
    153.00   -0.6223    0.3154
    154.00   -0.6099    0.2944
    155.00   -0.5971    0.2739
    156.00   -0.5841    0.2540
    157.00   -0.5710    0.2348
    158.00   -0.5585    0.2162
    159.00   -0.5469    0.1982
    160.00   -0.5374    0.1810
    161.00   -0.5318    0.1645
    162.00   -0.5338    0.1487
    163.00   -0.5515    0.1336
    164.00   -0.6086    0.1194
    165.00   -0.8106    0.1059
    166.00   -4.0577    0.0932
    167.00    0.4130    0.0813
    168.00    0.0799    0.0703
    169.00    0.0008    0.0600
    170.00   -0.0237    0.0507
    171.00   -0.0294    0.0422
    172.00   -0.0283    0.0346
    173.00   -0.0253    0.0278
    174.00   -0.0221    0.0219
    175.00   -0.0189    0.0170
    176.00   -0.0157    0.0129
    177.00   -0.0125    0.0097
    178.00   -0.0093    0.0075
    179.00   -0.0061    0.0061
    180.00   -0.0029    0.0057
    180.00   -0.0029    0.0067
