AeroDyn airfoil file Created with QBlade v0.963 64bit on 17.01.2019 at 13:27:42 Compatible with AeroDyn v13.0.
Polar "T1_Re0.100_M0.00_N9.0 360 M (2)" on Foil "T1_Re0.100_M0.00_N9.0" :: generated by QBlade
1              Number of airfoil tables in this file
0              Table ID parameter
14.50          Stall angle (deg)
0              No longer used, enter zero
0              No longer used, enter zero
0              No longer used, enter zero
-2.43          Angle of attack for zero Cn for linear Cn curve (deg)
3.81800        Cn slope for zero lift for linear Cn curve (1/rad)
-0.7748        Cn at stall value for positive angle of attack for linear Cn curve
-0.7754        Cn at stall value for negative angle of attack for linear Cn curve
8.00           Angle of attack for minimum CD (deg)
0.0225         Minimum CD value
   -180.00    0.0021    0.0060
   -179.00    0.0549    0.0065
   -178.00    0.1074    0.0080
   -177.00    0.1589    0.0106
   -176.00    0.2078    0.0141
   -175.00    0.2520    0.0187
   -174.00    0.2898    0.0242
   -173.00    0.3206    0.0308
   -172.00    0.3455    0.0383
   -171.00    0.3664    0.0468
   -170.00    0.3856    0.0562
   -169.00    0.4045    0.0666
   -168.00    0.4237    0.0780
   -167.00    0.4437    0.0902
   -166.00    0.4645    0.1034
   -165.00    0.4857    0.1175
   -164.00    0.5074    0.1324
   -163.00    0.5291    0.1482
   -162.00    0.5509    0.1648
   -161.00    0.5725    0.1823
   -160.00    0.5937    0.2005
   -159.00    0.6145    0.2195
   -158.00    0.6348    0.2392
   -157.00    0.6545    0.2597
   -156.00    0.6734    0.2809
   -155.00    0.6916    0.3027
   -154.00    0.7090    0.3252
   -153.00    0.7255    0.3483
   -152.00    0.7411    0.3720
   -151.00    0.7558    0.3962
   -150.00    0.7695    0.4210
   -149.00    0.7821    0.4463
   -148.00    0.7938    0.4720
   -147.00    0.8044    0.4982
   -146.00    0.8139    0.5247
   -145.00    0.8224    0.5517
   -144.00    0.8297    0.5790
   -143.00    0.8360    0.6066
   -142.00    0.8410    0.6344
   -141.00    0.8450    0.6625
   -140.00    0.8478    0.6908
   -139.00    0.8495    0.7193
   -138.00    0.8500    0.7479
   -137.00    0.8494    0.7766
   -136.00    0.8476    0.8054
   -135.00    0.8447    0.8342
   -134.00    0.8406    0.8629
   -133.00    0.8354    0.8917
   -132.00    0.8291    0.9204
   -131.00    0.8217    0.9489
   -130.00    0.8132    0.9774
   -129.00    0.8036    1.0056
   -128.00    0.7929    1.0336
   -127.00    0.7812    1.0614
   -126.00    0.7684    1.0889
   -125.00    0.7546    1.1161
   -124.00    0.7399    1.1429
   -123.00    0.7241    1.1694
   -122.00    0.7074    1.1954
   -121.00    0.6898    1.2210
   -120.00    0.6713    1.2461
   -119.00    0.6519    1.2707
   -118.00    0.6317    1.2948
   -117.00    0.6107    1.3184
   -116.00    0.5889    1.3413
   -115.00    0.5664    1.3636
   -114.00    0.5431    1.3852
   -113.00    0.5192    1.4062
   -112.00    0.4946    1.4265
   -111.00    0.4694    1.4461
   -110.00    0.4423    1.4649
   -109.00    0.4160    1.4830
   -108.00    0.3892    1.5002
   -107.00    0.3619    1.5167
   -106.00    0.3342    1.5323
   -105.00    0.3061    1.5471
   -104.00    0.2776    1.5610
   -103.00    0.2488    1.5740
   -102.00    0.2197    1.5861
   -101.00    0.1904    1.5973
   -100.00    0.1609    1.6076
    -99.00    0.1312    1.6169
    -98.00    0.1014    1.6253
    -97.00    0.0714    1.6327
    -96.00    0.0415    1.6391
    -95.00    0.0115    1.6446
    -94.00   -0.0185    1.6491
    -93.00   -0.0483    1.6526
    -92.00   -0.0781    1.6551
    -91.00   -0.1078    1.6565
    -90.00   -0.1373    1.6570
    -89.00   -0.1666    1.6565
    -88.00   -0.1956    1.6550
    -87.00   -0.2243    1.6525
    -86.00   -0.2528    1.6490
    -85.00   -0.2809    1.6445
    -84.00   -0.3086    1.6390
    -83.00   -0.3359    1.6326
    -82.00   -0.3628    1.6252
    -81.00   -0.3892    1.6168
    -80.00   -0.4151    1.6074
    -79.00   -0.4405    1.5971
    -78.00   -0.4653    1.5859
    -77.00   -0.4895    1.5738
    -76.00   -0.5131    1.5608
    -75.00   -0.5361    1.5468
    -74.00   -0.5584    1.5321
    -73.00   -0.5800    1.5164
    -72.00   -0.6009    1.4999
    -71.00   -0.6211    1.4827
    -70.00   -0.6406    1.4646
    -69.00   -0.6592    1.4458
    -68.00   -0.6771    1.4262
    -67.00   -0.6942    1.4059
    -66.00   -0.7105    1.3848
    -65.00   -0.7259    1.3632
    -64.00   -0.7405    1.3408
    -63.00   -0.7542    1.3179
    -62.00   -0.7671    1.2943
    -61.00   -0.7790    1.2702
    -60.00   -0.7901    1.2456
    -59.00   -0.8003    1.2204
    -58.00   -0.8095    1.1948
    -57.00   -0.8179    1.1687
    -56.00   -0.8253    1.1422
    -55.00   -0.8318    1.1153
    -54.00   -0.8374    1.0881
    -53.00   -0.8420    1.0606
    -52.00   -0.8458    1.0328
    -51.00   -0.8485    1.0047
    -50.00   -0.8504    0.9764
    -49.00   -0.8514    0.9479
    -48.00   -0.8514    0.9193
    -47.00   -0.8505    0.8906
    -46.00   -0.8487    0.8618
    -45.00   -0.8460    0.8329
    -44.00   -0.8424    0.8041
    -43.00   -0.8379    0.7752
    -42.00   -0.8325    0.7464
    -41.00   -0.8263    0.7178
    -40.00   -0.8192    0.6892
    -39.00   -0.8113    0.6608
    -38.00   -0.8025    0.6326
    -37.00   -0.7930    0.6046
    -36.00   -0.7827    0.5769
    -35.00   -0.7716    0.5495
    -34.00   -0.7597    0.5224
    -33.00   -0.7472    0.4957
    -32.00   -0.7339    0.4694
    -31.00   -0.7200    0.4435
    -30.00   -0.7054    0.4180
    -29.00   -0.6903    0.3930
    -28.00   -0.6745    0.3686
    -27.00   -0.6583    0.3446
    -26.00   -0.6415    0.3213
    -25.00   -0.6244    0.2985
    -24.00   -0.6068    0.2763
    -23.00   -0.5890    0.2548
    -22.00   -0.5710    0.2339
    -21.00   -0.5529    0.2137
    -20.00   -0.5348    0.1942
    -19.00   -0.5168    0.1754
    -18.00   -0.4992    0.1573
    -17.00   -0.4821    0.1400
    -16.00   -0.4658    0.1234
    -15.00   -0.4507    0.1077
    -14.00   -0.4369    0.0927
    -13.00   -0.4250    0.0787
    -12.00   -0.4151    0.0655
    -11.00   -0.4074    0.0535
    -10.00   -0.7275    0.0696
     -9.80   -0.7751    0.0664
     -9.70   -0.7759    0.0629
     -9.60   -0.7749    0.0643
     -9.40   -0.7714    0.0550
     -9.30   -0.7690    0.0532
     -9.20   -0.7657    0.0512
     -9.10   -0.7619    0.0491
     -9.00   -0.7576    0.0475
     -8.90   -0.7514    0.0465
     -8.80   -0.7427    0.0457
     -8.70   -0.7321    0.0448
     -8.60   -0.7202    0.0439
     -8.50   -0.7073    0.0429
     -8.40   -0.6954    0.0418
     -8.30   -0.6877    0.0409
     -8.20   -0.6769    0.0398
     -8.10   -0.6638    0.0386
     -8.00   -0.6487    0.0372
     -7.90   -0.6327    0.0361
     -7.80   -0.6173    0.0351
     -7.70   -0.6023    0.0343
     -7.60   -0.5879    0.0337
     -7.50   -0.5733    0.0330
     -7.40   -0.5587    0.0325
     -7.30   -0.5437    0.0320
     -7.20   -0.5286    0.0314
     -7.10   -0.5143    0.0310
     -7.00   -0.5053    0.0309
     -6.90   -0.5033    0.0309
     -6.80   -0.4950    0.0299
     -6.70   -0.4901    0.0295
     -6.60   -0.4833    0.0292
     -6.50   -0.4753    0.0289
     -6.40   -0.4667    0.0285
     -6.30   -0.4578    0.0281
     -6.20   -0.4486    0.0277
     -6.10   -0.4388    0.0273
     -6.00   -0.4285    0.0270
     -5.90   -0.4192    0.0265
     -5.80   -0.4162    0.0261
     -5.70   -0.4254    0.0263
     -5.60   -0.4262    0.0261
     -5.50   -0.4232    0.0258
     -5.40   -0.4220    0.0252
     -5.30   -0.4290    0.0240
     -5.20   -0.4389    0.0225
     -5.10   -0.4427    0.0235
     -5.00   -0.4220    0.0269
     -4.90   -0.3238    0.0360
     -4.80   -0.3690    0.0319
     -4.70   -0.3369    0.0357
     -4.60   -0.2691    0.0376
     -4.50   -0.2377    0.0379
     -4.40   -0.2068    0.0380
     -4.30   -0.1758    0.0381
     -4.20   -0.1524    0.0381
     -4.10   -0.1387    0.0380
     -4.00   -0.1442    0.0379
     -3.90   -0.2047    0.0376
     -3.80   -0.1468    0.0373
     -3.70   -0.1149    0.0372
     -3.60   -0.0815    0.0371
     -3.50   -0.0516    0.0369
     -3.40   -0.0294    0.0368
     -3.30   -0.0384    0.0371
     -3.20   -0.0449    0.0373
     -3.10   -0.0605    0.0375
     -3.00   -0.1391    0.0378
     -2.90   -0.1492    0.0375
     -2.80   -0.1153    0.0373
     -2.70   -0.0837    0.0372
     -2.60   -0.0533    0.0370
     -2.50   -0.0210    0.0368
     -2.40    0.0102    0.0367
     -2.30    0.0357    0.0365
     -2.20    0.0559    0.0363
     -2.10    0.0715    0.0361
     -2.00    0.0832    0.0360
     -1.90   -0.1369    0.0378
     -1.80   -0.1663    0.0375
     -1.70   -0.1510    0.0373
     -1.60   -0.1296    0.0372
     -1.50   -0.1054    0.0372
     -1.40   -0.0783    0.0371
     -1.30   -0.0481    0.0371
     -1.20   -0.0155    0.0370
     -1.10    0.0181    0.0368
     -1.00    0.0472    0.0366
     -0.90    0.0712    0.0364
     -0.80    0.0950    0.0362
     -0.70    0.1171    0.0360
     -0.50   -0.0902    0.0372
     -0.40   -0.0884    0.0370
     -0.30   -0.0811    0.0369
     -0.20   -0.0674    0.0367
     -0.10   -0.0470    0.0366
      0.00   -0.0239    0.0364
      0.10    0.0018    0.0363
      0.20    0.0301    0.0362
      0.30    0.0599    0.0361
      0.40    0.0897    0.0361
      0.60   -0.0183    0.0369
      0.70   -0.0082    0.0369
      0.80    0.0053    0.0369
      0.90    0.0209    0.0368
      1.00    0.0390    0.0367
      1.10    0.0591    0.0365
      1.20    0.0816    0.0364
      1.30    0.1065    0.0363
      1.40    0.1353    0.0362
      1.50    0.1645    0.0361
      1.70    0.0720    0.0370
      1.80    0.0843    0.0369
      1.90    0.0988    0.0369
      2.00    0.1154    0.0368
      2.10    0.1332    0.0366
      2.20    0.1531    0.0365
      2.30    0.1759    0.0363
      2.40    0.2018    0.0361
      2.50    0.2302    0.0359
      2.60    0.2564    0.0359
      2.90    0.1988    0.0371
      3.00    0.2165    0.0369
      3.10    0.2360    0.0367
      3.20    0.2580    0.0364
      3.30    0.2825    0.0361
      3.40    0.3100    0.0358
      3.50    0.3368    0.0356
      3.60    0.3614    0.0353
      3.80    0.2956    0.0371
      3.90    0.3132    0.0368
      4.00    0.3332    0.0364
      4.10    0.3561    0.0359
      4.20    0.3823    0.0354
      4.30    0.4108    0.0348
      4.40    0.4371    0.0342
      4.50    0.4629    0.0337
      4.60    0.4887    0.0332
      4.90    0.4537    0.0343
      5.00    0.4785    0.0337
      5.10    0.5032    0.0331
      5.20    0.5276    0.0324
      5.30    0.5523    0.0318
      5.40    0.5775    0.0311
      5.50    0.6039    0.0304
      5.70    0.5616    0.0320
      5.80    0.5819    0.0314
      5.90    0.6046    0.0306
      6.00    0.6273    0.0299
      6.10    0.6503    0.0292
      6.20    0.6745    0.0285
      6.30    0.7000    0.0277
      6.40    0.7033    0.0277
      6.50    0.6776    0.0286
      6.60    0.6929    0.0280
      6.70    0.7144    0.0273
      6.80    0.7405    0.0263
      6.90    0.7686    0.0253
      7.00    0.7948    0.0245
      7.10    0.7817    0.0251
      7.20    0.7918    0.0248
      7.30    0.8114    0.0241
      7.40    0.8425    0.0232
      7.50    0.8458    0.0233
      7.60    0.8496    0.0232
      7.70    0.8682    0.0227
      7.80    0.8830    0.0225
      7.90    0.8879    0.0227
      8.00    0.9052    0.0225
      8.10    0.9109    0.0226
      8.20    0.9165    0.0228
      8.30    0.9318    0.0229
      8.40    0.9318    0.0231
      8.50    0.9390    0.0233
      8.60    0.9547    0.0236
      8.70    0.9567    0.0239
      8.80    0.9614    0.0241
      8.90    0.9740    0.0245
      9.00    0.9861    0.0249
      9.10    0.9925    0.0252
      9.20    1.0022    0.0255
      9.30    1.0195    0.0260
      9.40    1.0259    0.0263
      9.50    1.0200    0.0264
      9.60    1.0182    0.0265
      9.70    1.0208    0.0268
      9.80    1.0279    0.0271
      9.90    1.0403    0.0276
     10.00    1.0428    0.0279
     10.10    1.0469    0.0283
     10.20    1.0519    0.0286
     10.30    1.0578    0.0290
     10.40    1.0711    0.0296
     10.50    1.0762    0.0300
     10.60    1.0787    0.0304
     10.70    1.0824    0.0309
     10.80    1.0868    0.0313
     10.90    1.0921    0.0317
     11.00    1.1061    0.0323
     11.10    1.1119    0.0329
     11.20    1.1140    0.0334
     11.30    1.1172    0.0339
     11.40    1.1210    0.0344
     11.50    1.1254    0.0348
     11.60    1.1307    0.0353
     11.70    1.1471    0.0361
     11.80    1.1461    0.0367
     11.90    1.1462    0.0373
     12.00    1.1474    0.0378
     12.10    1.1495    0.0384
     12.20    1.1522    0.0389
     12.30    1.1557    0.0394
     12.40    1.1737    0.0403
     12.50    1.1720    0.0409
     12.60    1.1713    0.0416
     12.70    1.1716    0.0423
     12.80    1.1728    0.0430
     12.90    1.1748    0.0437
     13.00    1.1775    0.0443
     13.10    1.1812    0.0449
     13.20    1.1866    0.0455
     13.30    1.2041    0.0468
     13.40    1.2019    0.0476
     13.50    1.2000    0.0484
     13.60    1.1982    0.0493
     13.70    1.1962    0.0503
     13.80    1.1948    0.0512
     13.90    1.1938    0.0521
     14.00    1.1934    0.0529
     14.10    1.1938    0.0537
     14.20    1.1956    0.0543
     14.30    1.1994    0.0548
     14.40    1.2047    0.0555
     14.50    1.2103    0.0573
     14.60    1.2054    0.0583
     14.70    1.2005    0.0595
     14.80    1.1954    0.0607
     14.90    1.1905    0.0620
     15.00    1.1855    0.0634
     15.10    1.1800    0.0649
     15.20    1.1744    0.0665
     15.30    1.1684    0.0680
     15.40    1.1620    0.0697
     15.50    1.1546    0.0715
     15.60    1.1469    0.0733
     15.70    1.1390    0.0752
     15.80    1.1304    0.0772
     15.90    1.1202    0.0794
     16.00    1.1094    0.0817
     16.10    1.0971    0.0844
     16.20    1.0808    0.0877
     16.30    1.0594    0.0918
     16.40    1.0278    0.0979
     16.50    0.8405    0.1372
     16.60    0.8077    0.1480
     16.70    0.7915    0.1544
     16.80    0.7808    0.1593
     16.90    0.7741    0.1632
     17.00    0.7701    0.1664
     17.10    0.7674    0.1693
     17.20    0.7657    0.1720
     17.30    0.7649    0.1745
     17.40    0.7650    0.1769
     17.50    0.7660    0.1792
     17.60    0.7685    0.1815
     17.80    0.7203    0.1983
     17.90    0.7253    0.1996
     18.00    0.7312    0.2011
     18.10    0.7383    0.2026
     18.20    0.7471    0.2045
     18.30    0.7574    0.2069
     18.40    0.7678    0.2098
     18.60    0.7777    0.2199
     18.70    0.7781    0.2217
     18.80    0.7778    0.2233
     18.90    0.7760    0.2246
     19.00    0.7734    0.2255
     19.10    0.7690    0.2259
     19.20    0.7593    0.2248
     19.30    0.7483    0.2236
     19.40    0.7474    0.2246
     19.50    0.7492    0.2259
     19.60    0.7523    0.2271
     19.70    0.7566    0.2282
     19.80    0.7624    0.2293
     19.90    0.7699    0.2305
     20.00    0.7779    0.2322
     21.00    0.7066    0.1750
     22.00    0.6992    0.2001
     23.00    0.6954    0.2254
     24.00    0.6949    0.2509
     25.00    0.6970    0.2766
     26.00    0.7012    0.3025
     27.00    0.7070    0.3286
     28.00    0.7140    0.3550
     29.00    0.7219    0.3817
     30.00    0.7303    0.4086
     31.00    0.7390    0.4359
     32.00    0.7478    0.4634
     33.00    0.7566    0.4913
     34.00    0.7653    0.5194
     35.00    0.7737    0.5478
     36.00    0.7817    0.5764
     37.00    0.7893    0.6053
     38.00    0.7963    0.6344
     39.00    0.8028    0.6637
     40.00    0.8087    0.6931
     41.00    0.8140    0.7226
     42.00    0.8185    0.7523
     43.00    0.8223    0.7821
     44.00    0.8254    0.8118
     45.00    0.8278    0.8416
     46.00    0.8293    0.8714
     47.00    0.8300    0.9011
     48.00    0.8300    0.9307
     49.00    0.8291    0.9602
     50.00    0.8274    0.9895
     51.00    0.8248    1.0187
     52.00    0.8214    1.0476
     53.00    0.8171    1.0763
     54.00    0.8120    1.1047
     55.00    0.8060    1.1327
     56.00    0.7991    1.1604
     57.00    0.7914    1.1877
     58.00    0.7829    1.2146
     59.00    0.7735    1.2410
     60.00    0.7632    1.2669
     61.00    0.7521    1.2923
     62.00    0.7402    1.3172
     63.00    0.7275    1.3415
     64.00    0.7139    1.3651
     65.00    0.6996    1.3882
     66.00    0.6845    1.4106
     67.00    0.6685    1.4322
     68.00    0.6519    1.4532
     69.00    0.6344    1.4734
     70.00    0.6163    1.4929
     71.00    0.5974    1.5115
     72.00    0.5778    1.5294
     73.00    0.5576    1.5464
     74.00    0.5366    1.5625
     75.00    0.5151    1.5778
     76.00    0.4929    1.5922
     77.00    0.4702    1.6056
     78.00    0.4468    1.6182
     79.00    0.4230    1.6298
     80.00    0.3986    1.6404
     81.00    0.3737    1.6501
     82.00    0.3483    1.6588
     83.00    0.3225    1.6664
     84.00    0.2963    1.6731
     85.00    0.2697    1.6788
     86.00    0.2428    1.6834
     87.00    0.2155    1.6871
     88.00    0.1879    1.6897
     89.00    0.1601    1.6913
     90.00    0.1321    1.6918
     91.00    0.1038    1.6913
     92.00    0.0754    1.6898
     93.00    0.0469    1.6872
     94.00    0.0182    1.6836
     95.00   -0.0105    1.6790
     96.00   -0.0392    1.6734
     97.00   -0.0679    1.6668
     98.00   -0.0966    1.6591
     99.00   -0.1251    1.6505
    100.00   -0.1536    1.6409
    101.00   -0.1819    1.6303
    102.00   -0.2101    1.6187
    103.00   -0.2380    1.6063
    104.00   -0.2656    1.5928
    105.00   -0.2930    1.5785
    106.00   -0.3200    1.5633
    107.00   -0.3466    1.5472
    108.00   -0.3729    1.5303
    109.00   -0.3987    1.5125
    110.00   -0.4240    1.4939
    111.00   -0.4507    1.4745
    112.00   -0.4750    1.4544
    113.00   -0.4987    1.4335
    114.00   -0.5218    1.4119
    115.00   -0.5443    1.3896
    116.00   -0.5661    1.3666
    117.00   -0.5873    1.3431
    118.00   -0.6076    1.3189
    119.00   -0.6273    1.2941
    120.00   -0.6461    1.2688
    121.00   -0.6641    1.2430
    122.00   -0.6813    1.2167
    123.00   -0.6976    1.1900
    124.00   -0.7131    1.1628
    125.00   -0.7276    1.1353
    126.00   -0.7411    1.1074
    127.00   -0.7537    1.0792
    128.00   -0.7653    1.0507
    129.00   -0.7760    1.0220
    130.00   -0.7856    0.9931
    131.00   -0.7941    0.9640
    132.00   -0.8016    0.9347
    133.00   -0.8081    0.9054
    134.00   -0.8135    0.8760
    135.00   -0.8178    0.8465
    136.00   -0.8210    0.8171
    137.00   -0.8231    0.7877
    138.00   -0.8241    0.7584
    139.00   -0.8240    0.7292
    140.00   -0.8228    0.7001
    141.00   -0.8204    0.6712
    142.00   -0.8170    0.6426
    143.00   -0.8124    0.6142
    144.00   -0.8068    0.5861
    145.00   -0.8001    0.5583
    146.00   -0.7923    0.5309
    147.00   -0.7834    0.5038
    148.00   -0.7734    0.4772
    149.00   -0.7625    0.4510
    150.00   -0.7505    0.4254
    151.00   -0.7375    0.4002
    152.00   -0.7236    0.3756
    153.00   -0.7087    0.3516
    154.00   -0.6929    0.3281
    155.00   -0.6763    0.3054
    156.00   -0.6588    0.2832
    157.00   -0.6406    0.2618
    158.00   -0.6216    0.2411
    159.00   -0.6021    0.2211
    160.00   -0.5819    0.2019
    161.00   -0.5614    0.1835
    162.00   -0.5404    0.1659
    163.00   -0.5192    0.1491
    164.00   -0.4980    0.1331
    165.00   -0.4769    0.1181
    166.00   -0.4560    0.1039
    167.00   -0.4356    0.0906
    168.00   -0.4159    0.0783
    169.00   -0.3967    0.0669
    170.00   -0.3780    0.0564
    171.00   -0.3589    0.0469
    172.00   -0.3381    0.0384
    173.00   -0.3136    0.0308
    174.00   -0.2834    0.0243
    175.00   -0.2463    0.0187
    176.00   -0.2027    0.0141
    177.00   -0.1543    0.0106
    178.00   -0.1031    0.0080
    179.00   -0.0506    0.0065
    180.00    0.0021    0.0060
    180.00    0.0021    0.0060
