AeroDyn airfoil file Created with QBlade v0.963 64bit on 17.01.2019 at 13:27:42 Compatible with AeroDyn v13.0.
Polar "T1_Re0.100_M0.00_N9.0 360 M" on Foil "T1_Re0.100_M0.00_N9.0" :: generated by QBlade
1              Number of airfoil tables in this file
0              Table ID parameter
14.50          Stall angle (deg)
0              No longer used, enter zero
0              No longer used, enter zero
0              No longer used, enter zero
-2.43          Angle of attack for zero Cn for linear Cn curve (deg)
3.81800        Cn slope for zero lift for linear Cn curve (1/rad)
-0.7748        Cn at stall value for positive angle of attack for linear Cn curve
-0.7754        Cn at stall value for negative angle of attack for linear Cn curve
8.00           Angle of attack for minimum CD (deg)
0.0225         Minimum CD value
   -180.00    0.0021    0.0060
   -179.00    0.0549    0.0065
   -178.00    0.1074    0.0080
   -177.00    0.1589    0.0106
   -176.00    0.2078    0.0141
   -175.00    0.2520    0.0187
   -174.00    0.2898    0.0242
   -173.00    0.3206    0.0308
   -172.00    0.3455    0.0383
   -171.00    0.3664    0.0468
   -170.00    0.3856    0.0562
   -169.00    0.4045    0.0666
   -168.00    0.4237    0.0780
   -167.00    0.4437    0.0902
   -166.00    0.4645    0.1034
   -165.00    0.4857    0.1175
   -164.00    0.5074    0.1324
   -163.00    0.5291    0.1482
   -162.00    0.5509    0.1648
   -161.00    0.5725    0.1823
   -160.00    0.5937    0.2005
   -159.00    0.6145    0.2195
   -158.00    0.6348    0.2392
   -157.00    0.6545    0.2597
   -156.00    0.6734    0.2809
   -155.00    0.6916    0.3027
   -154.00    0.7090    0.3252
   -153.00    0.7255    0.3483
   -152.00    0.7411    0.3720
   -151.00    0.7558    0.3962
   -150.00    0.7695    0.4210
   -149.00    0.7821    0.4462
   -148.00    0.7938    0.4720
   -147.00    0.8044    0.4981
   -146.00    0.8139    0.5247
   -145.00    0.8224    0.5517
   -144.00    0.8297    0.5789
   -143.00    0.8360    0.6065
   -142.00    0.8410    0.6344
   -141.00    0.8450    0.6625
   -140.00    0.8478    0.6908
   -139.00    0.8495    0.7192
   -138.00    0.8500    0.7478
   -137.00    0.8494    0.7765
   -136.00    0.8476    0.8053
   -135.00    0.8447    0.8341
   -134.00    0.8406    0.8629
   -133.00    0.8354    0.8916
   -132.00    0.8291    0.9203
   -131.00    0.8217    0.9489
   -130.00    0.8132    0.9773
   -129.00    0.8036    1.0055
   -128.00    0.7929    1.0335
   -127.00    0.7812    1.0613
   -126.00    0.7684    1.0888
   -125.00    0.7546    1.1160
   -124.00    0.7399    1.1428
   -123.00    0.7241    1.1692
   -122.00    0.7074    1.1953
   -121.00    0.6898    1.2209
   -120.00    0.6713    1.2460
   -119.00    0.6519    1.2706
   -118.00    0.6317    1.2947
   -117.00    0.6107    1.3182
   -116.00    0.5889    1.3411
   -115.00    0.5664    1.3634
   -114.00    0.5431    1.3851
   -113.00    0.5192    1.4061
   -112.00    0.4946    1.4263
   -111.00    0.4694    1.4459
   -110.00    0.4413    1.4647
   -109.00    0.4149    1.4828
   -108.00    0.3881    1.5000
   -107.00    0.3608    1.5165
   -106.00    0.3330    1.5321
   -105.00    0.3049    1.5468
   -104.00    0.2764    1.5607
   -103.00    0.2476    1.5737
   -102.00    0.2185    1.5858
   -101.00    0.1891    1.5970
   -100.00    0.1596    1.6073
    -99.00    0.1299    1.6166
    -98.00    0.1000    1.6249
    -97.00    0.0701    1.6324
    -96.00    0.0401    1.6388
    -95.00    0.0101    1.6442
    -94.00   -0.0199    1.6487
    -93.00   -0.0498    1.6522
    -92.00   -0.0796    1.6547
    -91.00   -0.1093    1.6561
    -90.00   -0.1388    1.6566
    -89.00   -0.1681    1.6561
    -88.00   -0.1972    1.6546
    -87.00   -0.2260    1.6520
    -86.00   -0.2545    1.6485
    -85.00   -0.2826    1.6440
    -84.00   -0.3103    1.6385
    -83.00   -0.3377    1.6320
    -82.00   -0.3646    1.6246
    -81.00   -0.3910    1.6162
    -80.00   -0.4169    1.6068
    -79.00   -0.4423    1.5965
    -78.00   -0.4672    1.5853
    -77.00   -0.4914    1.5731
    -76.00   -0.5151    1.5601
    -75.00   -0.5381    1.5461
    -74.00   -0.5604    1.5313
    -73.00   -0.5821    1.5157
    -72.00   -0.6031    1.4992
    -71.00   -0.6233    1.4819
    -70.00   -0.6428    1.4638
    -69.00   -0.6615    1.4449
    -68.00   -0.6794    1.4253
    -67.00   -0.6965    1.4050
    -66.00   -0.7129    1.3840
    -65.00   -0.7283    1.3622
    -64.00   -0.7430    1.3399
    -63.00   -0.7567    1.3169
    -62.00   -0.7696    1.2933
    -61.00   -0.7816    1.2692
    -60.00   -0.7927    1.2445
    -59.00   -0.8030    1.2194
    -58.00   -0.8123    1.1937
    -57.00   -0.8207    1.1676
    -56.00   -0.8281    1.1411
    -55.00   -0.8347    1.1142
    -54.00   -0.8403    1.0870
    -53.00   -0.8450    1.0594
    -52.00   -0.8488    1.0316
    -51.00   -0.8516    1.0035
    -50.00   -0.8535    0.9752
    -49.00   -0.8545    0.9467
    -48.00   -0.8546    0.9181
    -47.00   -0.8537    0.8893
    -46.00   -0.8519    0.8605
    -45.00   -0.8493    0.8317
    -44.00   -0.8457    0.8028
    -43.00   -0.8412    0.7740
    -42.00   -0.8359    0.7452
    -41.00   -0.8296    0.7165
    -40.00   -0.8226    0.6880
    -39.00   -0.8146    0.6596
    -38.00   -0.8058    0.6314
    -37.00   -0.7962    0.6035
    -36.00   -0.7858    0.5758
    -35.00   -0.7746    0.5485
    -34.00   -0.7627    0.5215
    -33.00   -0.7499    0.4948
    -32.00   -0.7364    0.4686
    -31.00   -0.7222    0.4428
    -30.00   -0.7073    0.4174
    -29.00   -0.6917    0.3926
    -28.00   -0.6755    0.3683
    -27.00   -0.6586    0.3445
    -26.00   -0.6411    0.3214
    -25.00   -0.6229    0.2989
    -24.00   -0.6043    0.2770
    -23.00   -0.5850    0.2558
    -22.00   -0.5652    0.2353
    -21.00   -0.5450    0.2155
    -20.00   -0.5242    0.1965
    -19.00   -0.5030    0.1783
    -18.00   -0.4813    0.1609
    -17.00   -0.4593    0.1443
    -16.00   -0.4368    0.1285
    -15.00   -0.4140    0.1137
    -14.00   -0.3908    0.0997
    -13.00   -0.3673    0.0867
    -12.00   -0.3434    0.0746
    -11.00   -0.3192    0.0635
    -10.00   -0.7275    0.0696
     -9.90   -0.7513    0.0680
     -9.80   -0.7751    0.0664
     -9.70   -0.7759    0.0629
     -9.60   -0.7749    0.0643
     -9.50   -0.7732    0.0596
     -9.40   -0.7651    0.0512
     -9.30   -0.7611    0.0495
     -9.20   -0.7559    0.0480
     -9.10   -0.7491    0.0467
     -9.00   -0.7408    0.0457
     -8.90   -0.7307    0.0448
     -8.80   -0.7195    0.0438
     -8.70   -0.7085    0.0429
     -8.60   -0.6975    0.0419
     -8.50   -0.6862    0.0408
     -8.40   -0.6745    0.0397
     -8.30   -0.6620    0.0385
     -8.20   -0.6479    0.0374
     -8.10   -0.6330    0.0363
     -8.00   -0.6178    0.0353
     -7.90   -0.6027    0.0344
     -7.80   -0.5879    0.0337
     -7.70   -0.5732    0.0331
     -7.60   -0.5584    0.0325
     -7.50   -0.5437    0.0320
     -7.40   -0.5301    0.0316
     -7.30   -0.5190    0.0312
     -7.20   -0.5093    0.0308
     -7.10   -0.5016    0.0304
     -7.00   -0.4954    0.0301
     -6.90   -0.4894    0.0297
     -6.80   -0.4821    0.0292
     -6.70   -0.4746    0.0288
     -6.60   -0.4663    0.0285
     -6.50   -0.4574    0.0281
     -6.40   -0.4481    0.0277
     -6.30   -0.4386    0.0273
     -6.20   -0.4303    0.0269
     -6.10   -0.4256    0.0266
     -6.00   -0.4231    0.0264
     -5.90   -0.4220    0.0262
     -5.80   -0.4226    0.0259
     -5.70   -0.4252    0.0255
     -5.60   -0.4279    0.0247
     -5.50   -0.4312    0.0242
     -5.40   -0.4309    0.0244
     -5.30   -0.4113    0.0266
     -5.20   -0.3993    0.0282
     -5.10   -0.3789    0.0308
     -5.00   -0.3442    0.0336
     -4.90   -0.3073    0.0358
     -4.80   -0.2839    0.0362
     -4.70   -0.2453    0.0375
     -4.60   -0.2084    0.0379
     -4.50   -0.1823    0.0380
     -4.40   -0.1636    0.0380
     -4.30   -0.1632    0.0379
     -4.20   -0.1574    0.0378
     -4.10   -0.1499    0.0376
     -4.00   -0.1384    0.0374
     -3.90   -0.1199    0.0372
     -3.80   -0.0848    0.0371
     -3.70   -0.0632    0.0370
     -3.60   -0.0492    0.0370
     -3.50   -0.0450    0.0371
     -3.40   -0.0625    0.0373
     -3.30   -0.0864    0.0374
     -3.20   -0.1018    0.0375
     -3.10   -0.1096    0.0375
     -3.00   -0.1081    0.0374
     -2.90   -0.0845    0.0372
     -2.80   -0.0526    0.0370
     -2.70   -0.0224    0.0368
     -2.60    0.0055    0.0367
     -2.50    0.0305    0.0365
     -2.40    0.0513    0.0363
     -2.30    0.0219    0.0365
     -2.20   -0.0185    0.0367
     -2.10   -0.0599    0.0369
     -2.00   -0.1001    0.0372
     -1.90   -0.1378    0.0374
     -1.80   -0.1261    0.0373
     -1.70   -0.1025    0.0372
     -1.60   -0.0754    0.0371
     -1.50   -0.0458    0.0370
     -1.40   -0.0153    0.0369
     -1.30    0.0146    0.0368
     -1.20    0.0432    0.0366
     -1.10    0.0697    0.0364
     -1.00    0.0688    0.0364
     -0.90    0.0413    0.0365
     -0.80    0.0094    0.0366
     -0.70   -0.0258    0.0367
     -0.60   -0.0627    0.0369
     -0.50   -0.0748    0.0369
     -0.40   -0.0616    0.0367
     -0.30   -0.0435    0.0366
     -0.20   -0.0213    0.0364
     -0.10    0.0042    0.0363
      0.00    0.0315    0.0362
      0.10    0.0434    0.0362
      0.20    0.0394    0.0364
      0.30    0.0318    0.0365
      0.40    0.0208    0.0367
      0.50    0.0071    0.0368
      0.60    0.0077    0.0368
      0.70    0.0232    0.0368
      0.80    0.0412    0.0367
      0.90    0.0614    0.0365
      1.00    0.0843    0.0364
      1.10    0.1094    0.0363
      1.20    0.1212    0.0363
      1.30    0.1193    0.0364
      1.40    0.1149    0.0366
      1.50    0.1076    0.0367
      1.60    0.0977    0.0368
      1.70    0.1007    0.0368
      1.80    0.1170    0.0367
      1.90    0.1353    0.0366
      2.00    0.1559    0.0365
      2.10    0.1788    0.0363
      2.20    0.2035    0.0361
      2.30    0.2203    0.0361
      2.40    0.2287    0.0362
      2.50    0.2281    0.0364
      2.60    0.2254    0.0366
      2.70    0.2213    0.0367
      2.80    0.2255    0.0368
      2.90    0.2384    0.0366
      3.00    0.2606    0.0364
      3.10    0.2847    0.0361
      3.20    0.3097    0.0358
      3.30    0.3238    0.0358
      3.40    0.3265    0.0360
      3.50    0.3271    0.0362
      3.60    0.3264    0.0364
      3.70    0.3253    0.0365
      3.80    0.3361    0.0363
      3.90    0.3591    0.0359
      4.00    0.3839    0.0353
      4.10    0.4098    0.0348
      4.20    0.4364    0.0343
      4.30    0.4553    0.0339
      4.40    0.4662    0.0337
      4.50    0.4695    0.0337
      4.60    0.4727    0.0337
      4.70    0.4756    0.0337
      4.80    0.4857    0.0335
      4.90    0.5031    0.0331
      5.00    0.5278    0.0324
      5.10    0.5529    0.0318
      5.20    0.5688    0.0314
      5.30    0.5756    0.0313
      5.40    0.5815    0.0312
      5.50    0.5870    0.0311
      5.60    0.5916    0.0310
      5.70    0.6051    0.0306
      5.80    0.6277    0.0299
      5.90    0.6513    0.0292
      6.00    0.6711    0.0286
      6.10    0.6811    0.0283
      6.20    0.6897    0.0281
      6.30    0.6976    0.0279
      6.40    0.7057    0.0276
      6.50    0.7188    0.0271
      6.60    0.7422    0.0263
      6.70    0.7600    0.0257
      6.80    0.7755    0.0252
      6.90    0.7897    0.0248
      7.00    0.8044    0.0243
      7.10    0.8146    0.0241
      7.20    0.8282    0.0237
      7.30    0.8435    0.0233
      7.40    0.8578    0.0230
      7.50    0.8669    0.0229
      7.60    0.8788    0.0227
      7.70    0.8910    0.0226
      7.80    0.9007    0.0226
      7.90    0.9105    0.0227
      8.00    0.9192    0.0228
      8.10    0.9260    0.0229
      8.20    0.9348    0.0231
      8.30    0.9428    0.0234
      8.40    0.9487    0.0236
      8.50    0.9572    0.0239
      8.60    0.9666    0.0242
      8.70    0.9741    0.0245
      8.80    0.9832    0.0248
      8.90    0.9949    0.0252
      9.00    1.0052    0.0256
      9.10    1.0120    0.0259
      9.20    1.0172    0.0261
      9.30    1.0209    0.0264
      9.40    1.0226    0.0266
      9.50    1.0254    0.0269
      9.60    1.0300    0.0272
      9.70    1.0357    0.0275
      9.80    1.0420    0.0279
      9.90    1.0479    0.0283
     10.00    1.0541    0.0287
     10.10    1.0608    0.0291
     10.20    1.0671    0.0295
     10.30    1.0732    0.0300
     10.40    1.0790    0.0304
     10.50    1.0832    0.0309
     10.60    1.0892    0.0313
     10.70    1.0959    0.0318
     10.80    1.1022    0.0323
     10.90    1.1083    0.0328
     11.00    1.1140    0.0334
     11.10    1.1179    0.0339
     11.20    1.1217    0.0344
     11.30    1.1283    0.0349
     11.40    1.1341    0.0355
     11.50    1.1391    0.0360
     11.60    1.1435    0.0366
     11.70    1.1473    0.0373
     11.80    1.1483    0.0378
     11.90    1.1502    0.0384
     12.00    1.1557    0.0390
     12.10    1.1606    0.0396
     12.20    1.1650    0.0402
     12.30    1.1689    0.0409
     12.40    1.1723    0.0416
     12.50    1.1725    0.0423
     12.60    1.1736    0.0430
     12.70    1.1756    0.0436
     12.80    1.1786    0.0443
     12.90    1.1848    0.0450
     13.00    1.1903    0.0458
     13.10    1.1948    0.0466
     13.20    1.1982    0.0475
     13.30    1.2001    0.0485
     13.40    1.1982    0.0494
     13.50    1.1966    0.0503
     13.60    1.1953    0.0512
     13.70    1.1944    0.0520
     13.80    1.1943    0.0528
     13.90    1.1952    0.0536
     14.00    1.1974    0.0542
     14.10    1.2008    0.0551
     14.20    1.2031    0.0560
     14.30    1.2041    0.0571
     14.40    1.2033    0.0583
     14.50    1.2004    0.0596
     14.60    1.1955    0.0608
     14.70    1.1904    0.0621
     14.80    1.1852    0.0635
     14.90    1.1798    0.0650
     15.00    1.1741    0.0665
     15.10    1.1679    0.0681
     15.20    1.1613    0.0698
     15.30    1.1542    0.0715
     15.40    1.1466    0.0734
     15.50    1.1382    0.0753
     15.60    1.1292    0.0774
     15.70    1.1192    0.0796
     15.80    1.1076    0.0821
     15.90    1.0934    0.0850
     16.00    1.0749    0.0887
     16.10    1.0211    0.0998
     16.20    0.9632    0.1125
     16.30    0.9054    0.1259
     16.40    0.8497    0.1394
     16.50    0.7989    0.1524
     16.60    0.7848    0.1583
     16.70    0.7768    0.1625
     16.80    0.7716    0.1660
     16.90    0.7684    0.1691
     17.00    0.7666    0.1718
     17.10    0.7658    0.1744
     17.20    0.7660    0.1768
     17.30    0.7618    0.1804
     17.40    0.7528    0.1852
     17.50    0.7449    0.1897
     17.60    0.7379    0.1941
     17.70    0.7319    0.1983
     17.80    0.7324    0.2012
     17.90    0.7399    0.2029
     18.00    0.7484    0.2050
     18.10    0.7567    0.2077
     18.20    0.7645    0.2112
     18.30    0.7707    0.2146
     18.40    0.7748    0.2179
     18.50    0.7765    0.2209
     18.60    0.7766    0.2230
     18.70    0.7749    0.2242
     18.80    0.7711    0.2248
     18.90    0.7652    0.2249
     19.00    0.7595    0.2249
     19.10    0.7546    0.2250
     19.20    0.7513    0.2252
     19.30    0.7508    0.2259
     19.40    0.7536    0.2270
     19.50    0.7492    0.2259
     19.60    0.7523    0.2271
     19.70    0.7566    0.2282
     19.80    0.7624    0.2293
     19.90    0.7699    0.2305
     20.00    0.7779    0.2322
     21.00    0.7066    0.1750
     22.00    0.6992    0.2001
     23.00    0.6954    0.2254
     24.00    0.6949    0.2509
     25.00    0.6970    0.2766
     26.00    0.7012    0.3025
     27.00    0.7070    0.3286
     28.00    0.7140    0.3550
     29.00    0.7219    0.3817
     30.00    0.7303    0.4086
     31.00    0.7390    0.4359
     32.00    0.7478    0.4634
     33.00    0.7566    0.4913
     34.00    0.7653    0.5194
     35.00    0.7737    0.5478
     36.00    0.7817    0.5764
     37.00    0.7893    0.6053
     38.00    0.7963    0.6344
     39.00    0.8028    0.6637
     40.00    0.8087    0.6931
     41.00    0.8140    0.7226
     42.00    0.8185    0.7523
     43.00    0.8223    0.7821
     44.00    0.8254    0.8118
     45.00    0.8278    0.8416
     46.00    0.8293    0.8714
     47.00    0.8300    0.9011
     48.00    0.8300    0.9307
     49.00    0.8291    0.9602
     50.00    0.8274    0.9895
     51.00    0.8248    1.0187
     52.00    0.8214    1.0476
     53.00    0.8171    1.0763
     54.00    0.8120    1.1047
     55.00    0.8060    1.1327
     56.00    0.7991    1.1604
     57.00    0.7914    1.1877
     58.00    0.7829    1.2146
     59.00    0.7735    1.2410
     60.00    0.7632    1.2669
     61.00    0.7521    1.2923
     62.00    0.7402    1.3172
     63.00    0.7275    1.3415
     64.00    0.7139    1.3651
     65.00    0.6996    1.3882
     66.00    0.6845    1.4106
     67.00    0.6685    1.4322
     68.00    0.6519    1.4532
     69.00    0.6344    1.4734
     70.00    0.6163    1.4929
     71.00    0.5974    1.5115
     72.00    0.5778    1.5294
     73.00    0.5576    1.5464
     74.00    0.5366    1.5625
     75.00    0.5151    1.5778
     76.00    0.4929    1.5922
     77.00    0.4702    1.6056
     78.00    0.4468    1.6182
     79.00    0.4230    1.6298
     80.00    0.3986    1.6404
     81.00    0.3737    1.6501
     82.00    0.3483    1.6588
     83.00    0.3225    1.6664
     84.00    0.2963    1.6731
     85.00    0.2697    1.6788
     86.00    0.2428    1.6834
     87.00    0.2155    1.6871
     88.00    0.1879    1.6897
     89.00    0.1601    1.6913
     90.00    0.1321    1.6918
     91.00    0.1038    1.6913
     92.00    0.0754    1.6898
     93.00    0.0469    1.6872
     94.00    0.0182    1.6836
     95.00   -0.0105    1.6790
     96.00   -0.0392    1.6734
     97.00   -0.0679    1.6668
     98.00   -0.0966    1.6591
     99.00   -0.1251    1.6505
    100.00   -0.1536    1.6409
    101.00   -0.1819    1.6303
    102.00   -0.2101    1.6187
    103.00   -0.2380    1.6063
    104.00   -0.2656    1.5928
    105.00   -0.2930    1.5785
    106.00   -0.3200    1.5633
    107.00   -0.3466    1.5472
    108.00   -0.3729    1.5303
    109.00   -0.3987    1.5125
    110.00   -0.4240    1.4939
    111.00   -0.4507    1.4745
    112.00   -0.4750    1.4544
    113.00   -0.4987    1.4335
    114.00   -0.5218    1.4119
    115.00   -0.5443    1.3896
    116.00   -0.5661    1.3666
    117.00   -0.5873    1.3431
    118.00   -0.6076    1.3189
    119.00   -0.6273    1.2941
    120.00   -0.6461    1.2688
    121.00   -0.6641    1.2430
    122.00   -0.6813    1.2167
    123.00   -0.6976    1.1900
    124.00   -0.7131    1.1628
    125.00   -0.7276    1.1353
    126.00   -0.7411    1.1074
    127.00   -0.7537    1.0792
    128.00   -0.7653    1.0507
    129.00   -0.7760    1.0220
    130.00   -0.7856    0.9931
    131.00   -0.7941    0.9640
    132.00   -0.8016    0.9347
    133.00   -0.8081    0.9054
    134.00   -0.8135    0.8760
    135.00   -0.8178    0.8465
    136.00   -0.8210    0.8171
    137.00   -0.8231    0.7877
    138.00   -0.8241    0.7584
    139.00   -0.8240    0.7292
    140.00   -0.8228    0.7001
    141.00   -0.8204    0.6712
    142.00   -0.8170    0.6426
    143.00   -0.8124    0.6142
    144.00   -0.8068    0.5861
    145.00   -0.8001    0.5583
    146.00   -0.7923    0.5309
    147.00   -0.7834    0.5038
    148.00   -0.7734    0.4772
    149.00   -0.7625    0.4510
    150.00   -0.7505    0.4254
    151.00   -0.7375    0.4002
    152.00   -0.7236    0.3756
    153.00   -0.7087    0.3516
    154.00   -0.6929    0.3281
    155.00   -0.6763    0.3054
    156.00   -0.6588    0.2832
    157.00   -0.6406    0.2618
    158.00   -0.6216    0.2411
    159.00   -0.6021    0.2211
    160.00   -0.5819    0.2019
    161.00   -0.5614    0.1835
    162.00   -0.5404    0.1659
    163.00   -0.5192    0.1491
    164.00   -0.4980    0.1331
    165.00   -0.4769    0.1181
    166.00   -0.4560    0.1039
    167.00   -0.4356    0.0906
    168.00   -0.4159    0.0783
    169.00   -0.3967    0.0669
    170.00   -0.3780    0.0564
    171.00   -0.3589    0.0469
    172.00   -0.3381    0.0384
    173.00   -0.3136    0.0308
    174.00   -0.2834    0.0243
    175.00   -0.2463    0.0187
    176.00   -0.2027    0.0141
    177.00   -0.1543    0.0106
    178.00   -0.1031    0.0080
    179.00   -0.0506    0.0065
    180.00    0.0021    0.0060
    180.00    0.0021    0.0060
