AeroDyn airfoil file Created with QBlade v0.963 64bit on 17.01.2019 at 13:27:42 Compatible with AeroDyn v13.0.
Polar "T1_Re0.125_M0.00_N9.0 360 M (2)" on Foil "T1_Re0.125_M0.00_N9.0" :: generated by QBlade
1              Number of airfoil tables in this file
0              Table ID parameter
15.20          Stall angle (deg)
0              No longer used, enter zero
0              No longer used, enter zero
0              No longer used, enter zero
-2.66          Angle of attack for zero Cn for linear Cn curve (deg)
4.38994        Cn slope for zero lift for linear Cn curve (1/rad)
-0.0832        Cn at stall value for positive angle of attack for linear Cn curve
-0.2334        Cn at stall value for negative angle of attack for linear Cn curve
-10.00         Angle of attack for minimum CD (deg)
0.0145         Minimum CD value
   -180.00   -0.0495    0.0065
   -179.00   -0.0359    0.0070
   -178.00   -0.0223    0.0086
   -177.00   -0.0087    0.0111
   -176.00    0.0049    0.0146
   -175.00    0.0189    0.0191
   -174.00    0.0343    0.0246
   -173.00    0.0533    0.0310
   -172.00    0.0784    0.0384
   -171.00    0.1113    0.0468
   -170.00    0.1509    0.0561
   -169.00    0.1941    0.0664
   -168.00    0.2377    0.0776
   -167.00    0.2793    0.0896
   -166.00    0.3181    0.1026
   -165.00    0.3539    0.1164
   -164.00    0.3869    0.1310
   -163.00    0.4175    0.1465
   -162.00    0.4461    0.1628
   -161.00    0.4728    0.1799
   -160.00    0.4980    0.1977
   -159.00    0.5218    0.2163
   -158.00    0.5442    0.2356
   -157.00    0.5655    0.2556
   -156.00    0.5855    0.2762
   -155.00    0.6044    0.2975
   -154.00    0.6222    0.3194
   -153.00    0.6388    0.3418
   -152.00    0.6544    0.3648
   -151.00    0.6689    0.3883
   -150.00    0.6823    0.4123
   -149.00    0.6946    0.4368
   -148.00    0.7058    0.4617
   -147.00    0.7159    0.4869
   -146.00    0.7249    0.5125
   -145.00    0.7329    0.5384
   -144.00    0.7397    0.5646
   -143.00    0.7455    0.5911
   -142.00    0.7501    0.6177
   -141.00    0.7537    0.6446
   -140.00    0.7562    0.6715
   -139.00    0.7576    0.6986
   -138.00    0.7579    0.7257
   -137.00    0.7571    0.7529
   -136.00    0.7554    0.7800
   -135.00    0.7525    0.8072
   -134.00    0.7486    0.8342
   -133.00    0.7437    0.8611
   -132.00    0.7378    0.8878
   -131.00    0.7309    0.9144
   -130.00    0.7230    0.9407
   -129.00    0.7141    0.9667
   -128.00    0.7043    0.9924
   -127.00    0.6935    1.0178
   -126.00    0.6819    1.0428
   -125.00    0.6693    1.0674
   -124.00    0.6559    1.0916
   -123.00    0.6417    1.1152
   -122.00    0.6266    1.1383
   -121.00    0.6108    1.1609
   -120.00    0.5941    1.1829
   -119.00    0.5768    1.2042
   -118.00    0.5587    1.2249
   -117.00    0.5399    1.2449
   -116.00    0.5205    1.2641
   -115.00    0.5004    1.2826
   -114.00    0.4797    1.3004
   -113.00    0.4585    1.3173
   -112.00    0.4367    1.3334
   -111.00    0.4144    1.3486
   -110.00    0.3917    1.3629
   -109.00    0.3685    1.3762
   -108.00    0.3448    1.3887
   -107.00    0.1592    1.4001
   -106.00    0.1328    1.4106
   -105.00    0.1062    1.4200
   -104.00    0.0793    1.4284
   -103.00    0.0522    1.4358
   -102.00    0.0249    1.4421
   -101.00   -0.0025    1.4472
   -100.00   -0.0300    1.4513
    -99.00   -0.0576    1.4543
    -98.00   -0.0852    1.4561
    -97.00   -0.1128    1.4567
    -96.00   -0.1403    1.4562
    -95.00   -0.1677    1.4545
    -94.00   -0.1951    1.4517
    -93.00   -0.2222    1.4476
    -92.00   -0.2492    1.4424
    -91.00   -0.2759    1.4360
    -90.00   -0.3023    1.4284
    -89.00   -0.3284    1.4196
    -88.00   -0.3542    1.4096
    -87.00   -0.3796    1.3984
    -86.00   -0.4045    1.3861
    -85.00   -0.4290    1.3726
    -84.00   -0.4530    1.3579
    -83.00   -0.4765    1.3421
    -82.00   -0.4994    1.3251
    -81.00   -0.5216    1.3070
    -80.00   -0.5433    1.2879
    -79.00   -0.5642    1.2677
    -78.00   -0.5845    1.2464
    -77.00   -0.6040    1.2241
    -76.00   -0.6227    1.2008
    -75.00   -0.6406    1.1766
    -74.00   -0.6576    1.1515
    -73.00   -0.6738    1.1254
    -72.00   -0.6891    1.0986
    -71.00   -0.7034    1.0709
    -70.00   -0.7168    1.0426
    -69.00   -0.7292    1.0135
    -68.00   -0.7406    0.9838
    -67.00   -0.7509    0.9535
    -66.00   -0.7602    0.9227
    -65.00   -0.7683    0.8914
    -64.00   -0.7754    0.8598
    -63.00   -0.7814    0.8278
    -62.00   -0.7862    0.7956
    -61.00   -0.7899    0.7633
    -60.00   -0.7925    0.7308
    -59.00   -0.7939    0.6984
    -58.00   -0.7941    0.6660
    -57.00   -0.7932    0.6338
    -56.00   -0.7912    0.6018
    -55.00   -0.7880    0.5702
    -54.00   -0.7837    0.5390
    -53.00   -0.7783    0.5082
    -52.00   -0.7718    0.4780
    -51.00   -0.7643    0.4485
    -50.00   -0.7558    0.4197
    -49.00   -0.7462    0.3919
    -48.00   -0.7358    0.3653
    -47.00   -0.7244    0.3396
    -46.00   -0.7121    0.3149
    -45.00   -0.6991    0.2911
    -44.00   -0.6852    0.2684
    -43.00   -0.6707    0.2467
    -42.00   -0.6555    0.2261
    -41.00   -0.6397    0.2067
    -40.00   -0.6234    0.1884
    -39.00   -0.6066    0.1712
    -38.00   -0.5894    0.1551
    -37.00   -0.5718    0.1402
    -36.00   -0.5539    0.1264
    -35.00   -0.5357    0.1137
    -34.00   -0.5173    0.1020
    -33.00   -0.4988    0.0914
    -32.00   -0.4801    0.0817
    -31.00   -0.4614    0.0730
    -30.00   -0.4426    0.0651
    -29.00   -0.4238    0.0581
    -28.00   -0.4050    0.0518
    -27.00   -0.3863    0.0463
    -26.00   -0.3676    0.0415
    -25.00   -0.3490    0.0372
    -24.00   -0.3304    0.0335
    -23.00   -0.3120    0.0303
    -22.00   -0.2937    0.0276
    -21.00   -0.2755    0.0252
    -20.00   -0.2574    0.0233
    -19.00   -0.2395    0.0216
    -18.00   -0.2216    0.0201
    -17.00   -0.2038    0.0190
    -16.00   -0.1862    0.0180
    -15.00   -0.1686    0.0171
    -14.00   -0.1511    0.0164
    -13.00   -0.1337    0.0158
    -12.00   -0.1164    0.0153
    -11.00   -0.0991    0.0149
    -10.00   -0.0819    0.0145
     -9.60   -0.7337    0.0522
     -9.50   -0.7371    0.0507
     -9.40   -0.7221    0.0511
     -9.30   -0.7102    0.0513
     -9.00   -0.6901    0.0422
     -8.90   -0.6797    0.0408
     -8.80   -0.6682    0.0394
     -8.70   -0.6554    0.0381
     -8.60   -0.6415    0.0368
     -8.50   -0.6264    0.0357
     -8.40   -0.6138    0.0347
     -8.30   -0.5997    0.0338
     -8.20   -0.5844    0.0329
     -8.10   -0.5681    0.0321
     -8.00   -0.5514    0.0314
     -7.90   -0.5351    0.0307
     -7.80   -0.5191    0.0302
     -7.70   -0.5036    0.0297
     -7.60   -0.4849    0.0289
     -7.50   -0.4649    0.0277
     -7.40   -0.4514    0.0270
     -7.30   -0.4391    0.0265
     -7.20   -0.4271    0.0260
     -7.10   -0.4145    0.0255
     -7.00   -0.4056    0.0253
     -6.90   -0.3972    0.0250
     -6.80   -0.3877    0.0248
     -6.70   -0.3824    0.0243
     -6.60   -0.3790    0.0238
     -6.50   -0.3735    0.0233
     -6.40   -0.3665    0.0229
     -6.30   -0.3586    0.0225
     -6.20   -0.3498    0.0221
     -6.10   -0.3403    0.0217
     -6.00   -0.3305    0.0214
     -5.90   -0.3292    0.0210
     -5.80   -0.3314    0.0206
     -5.70   -0.3403    0.0199
     -5.60   -0.3512    0.0190
     -5.50   -0.3622    0.0181
     -5.40   -0.3655    0.0191
     -5.30   -0.3507    0.0209
     -5.20   -0.3288    0.0226
     -5.10   -0.3002    0.0247
     -5.00   -0.2897    0.0254
     -4.90   -0.2201    0.0303
     -4.80   -0.1943    0.0310
     -4.70   -0.1763    0.0311
     -4.60   -0.1602    0.0313
     -4.50   -0.1477    0.0313
     -4.40   -0.1479    0.0312
     -4.30   -0.1643    0.0305
     -4.20   -0.1501    0.0306
     -4.10   -0.1341    0.0307
     -4.00   -0.1177    0.0309
     -3.90   -0.1016    0.0311
     -3.80   -0.0865    0.0312
     -3.70   -0.0726    0.0313
     -3.60   -0.0608    0.0314
     -3.50   -0.0523    0.0315
     -3.40   -0.0469    0.0315
     -3.30   -0.0511    0.0314
     -3.10   -0.0757    0.0308
     -3.00   -0.0579    0.0307
     -2.90   -0.0399    0.0307
     -2.80   -0.0226    0.0307
     -2.70   -0.0059    0.0307
     -2.60    0.0107    0.0307
     -2.50    0.0268    0.0308
     -2.40    0.0418    0.0308
     -2.30    0.0547    0.0308
     -2.20    0.0654    0.0308
     -2.10    0.0666    0.0309
     -2.00    0.0514    0.0309
     -1.90    0.0246    0.0309
     -1.80   -0.0069    0.0310
     -1.70    0.0000    0.0307
     -1.60    0.0105    0.0306
     -1.50    0.0239    0.0306
     -1.40    0.0380    0.0306
     -1.30    0.0517    0.0306
     -1.20    0.0647    0.0306
     -1.10    0.0776    0.0305
     -1.00    0.0904    0.0305
     -0.90    0.1035    0.0304
     -0.80    0.1167    0.0303
     -0.70    0.1298    0.0303
     -0.60    0.1417    0.0304
     -0.50    0.1340    0.0305
     -0.40    0.1024    0.0308
     -0.30    0.0797    0.0310
     -0.20    0.0747    0.0310
     -0.10    0.0792    0.0310
      0.00    0.0887    0.0309
      0.10    0.1011    0.0308
      0.20    0.1151    0.0306
      0.30    0.1306    0.0303
      0.40    0.1458    0.0302
      0.50    0.1611    0.0301
      0.60    0.1773    0.0300
      0.70    0.1940    0.0300
      0.80    0.2099    0.0300
      0.90    0.1712    0.0306
      1.00    0.1602    0.0308
      1.10    0.1639    0.0309
      1.20    0.1737    0.0308
      1.30    0.1871    0.0307
      1.40    0.2027    0.0306
      1.50    0.2197    0.0304
      1.60    0.2376    0.0302
      1.70    0.2551    0.0301
      1.80    0.2711    0.0299
      1.90    0.2870    0.0299
      2.00    0.3036    0.0298
      2.10    0.3200    0.0299
      2.20    0.2757    0.0307
      2.30    0.2772    0.0309
      2.40    0.2882    0.0308
      2.50    0.3027    0.0306
      2.60    0.3191    0.0305
      2.70    0.3367    0.0303
      2.80    0.3553    0.0300
      2.90    0.3738    0.0298
      3.00    0.3919    0.0296
      3.10    0.4104    0.0294
      3.20    0.4291    0.0292
      3.30    0.4465    0.0291
      3.40    0.4124    0.0299
      3.50    0.4174    0.0299
      3.60    0.4303    0.0296
      3.70    0.4472    0.0293
      3.80    0.4666    0.0288
      3.90    0.4851    0.0284
      4.00    0.5040    0.0280
      4.10    0.5233    0.0276
      4.20    0.5424    0.0272
      4.30    0.5608    0.0269
      4.40    0.5655    0.0270
      4.50    0.5544    0.0273
      4.60    0.5619    0.0272
      4.70    0.5737    0.0270
      4.80    0.5885    0.0267
      4.90    0.6055    0.0262
      5.00    0.6236    0.0258
      5.10    0.6420    0.0254
      5.20    0.6604    0.0250
      5.30    0.6796    0.0246
      5.40    0.6885    0.0245
      5.50    0.6809    0.0248
      5.60    0.6887    0.0247
      5.70    0.7017    0.0244
      5.80    0.7172    0.0240
      5.90    0.7347    0.0235
      6.00    0.7538    0.0229
      6.10    0.7735    0.0224
      6.20    0.7777    0.0223
      6.30    0.7783    0.0223
      6.40    0.7874    0.0220
      6.50    0.8002    0.0216
      6.60    0.8157    0.0211
      6.70    0.8346    0.0206
      6.80    0.8363    0.0207
      6.90    0.8417    0.0206
      7.00    0.8540    0.0203
      7.10    0.8712    0.0198
      7.20    0.8759    0.0198
      7.30    0.8833    0.0198
      7.40    0.8957    0.0195
      7.50    0.9015    0.0196
      7.60    0.9071    0.0196
      7.70    0.9169    0.0196
      7.80    0.9211    0.0198
      7.90    0.9252    0.0199
      8.00    0.9317    0.0201
      8.10    0.9334    0.0202
      8.20    0.9362    0.0204
      8.30    0.9410    0.0206
      8.40    0.9440    0.0209
      8.50    0.9468    0.0211
      8.60    0.9508    0.0213
      8.70    0.9570    0.0217
      8.90    0.9625    0.0222
      9.00    0.9658    0.0224
      9.10    0.9711    0.0228
      9.20    0.9752    0.0231
      9.30    0.9789    0.0234
      9.40    0.9836    0.0236
      9.50    0.9891    0.0240
      9.60    0.9981    0.0244
      9.70    1.0036    0.0247
      9.80    1.0108    0.0250
      9.90    1.0182    0.0254
     10.00    1.0226    0.0256
     10.10    1.0316    0.0261
     10.20    1.0385    0.0265
     10.30    1.0439    0.0269
     10.40    1.0495    0.0273
     10.50    1.0551    0.0277
     10.60    1.0610    0.0281
     10.70    1.0719    0.0287
     10.80    1.0783    0.0291
     10.90    1.0830    0.0296
     11.00    1.0879    0.0300
     11.10    1.0927    0.0305
     11.20    1.0972    0.0310
     11.30    1.1028    0.0315
     11.40    1.1147    0.0321
     11.50    1.1167    0.0326
     11.60    1.1193    0.0331
     11.70    1.1222    0.0337
     11.80    1.1252    0.0342
     11.90    1.1281    0.0347
     12.00    1.1322    0.0353
     12.10    1.1439    0.0359
     12.20    1.1449    0.0365
     12.30    1.1469    0.0371
     12.40    1.1496    0.0377
     12.50    1.1524    0.0383
     12.60    1.1553    0.0389
     12.70    1.1582    0.0395
     12.80    1.1620    0.0401
     12.90    1.1767    0.0408
     13.00    1.1768    0.0415
     13.10    1.1776    0.0422
     13.20    1.1788    0.0430
     13.30    1.1803    0.0437
     13.40    1.1819    0.0444
     13.50    1.1838    0.0451
     13.60    1.1857    0.0457
     13.70    1.1877    0.0464
     13.80    1.1908    0.0470
     13.90    1.2017    0.0480
     14.00    1.2007    0.0487
     14.10    1.1993    0.0496
     14.20    1.1982    0.0505
     14.30    1.1977    0.0514
     14.40    1.1978    0.0523
     14.50    1.1984    0.0531
     14.60    1.1993    0.0540
     14.70    1.2001    0.0548
     14.80    1.2012    0.0557
     14.90    1.2026    0.0565
     15.00    1.2044    0.0573
     15.10    1.2073    0.0581
     15.20    1.2129    0.0592
     15.30    1.2127    0.0609
     15.40    1.2099    0.0621
     15.50    1.2070    0.0633
     15.60    1.2039    0.0646
     15.70    1.2001    0.0660
     15.80    1.1959    0.0674
     15.90    1.1917    0.0689
     16.00    1.1873    0.0704
     16.10    1.1826    0.0720
     16.20    1.1768    0.0737
     16.30    1.1705    0.0754
     16.40    1.1641    0.0773
     16.50    1.1575    0.0792
     16.60    1.1499    0.0813
     16.70    1.1416    0.0836
     16.80    1.1331    0.0859
     16.90    1.1235    0.0884
     17.00    1.1120    0.0913
     17.10    1.0994    0.0945
     17.20    1.0821    0.0984
     17.30    1.0592    0.1035
     17.40    1.0051    0.1145
     17.50    0.8075    0.1631
     17.60    0.7993    0.1675
     17.70    0.7935    0.1712
     17.80    0.7893    0.1746
     17.90    0.7864    0.1777
     18.00    0.7846    0.1805
     18.10    0.7839    0.1832
     18.20    0.7843    0.1856
     18.30    0.7899    0.1876
     18.40    0.7487    0.2039
     18.50    0.7541    0.2052
     18.60    0.7627    0.2065
     18.70    0.7766    0.2078
     18.80    0.7838    0.2147
     18.90    0.7842    0.2167
     19.00    0.7844    0.2185
     19.10    0.7844    0.2202
     19.20    0.7839    0.2217
     19.30    0.7810    0.2229
     19.40    0.7747    0.2235
     19.50    0.7607    0.2232
     19.60    0.7611    0.2247
     19.70    0.7629    0.2262
     19.80    0.7652    0.2277
     19.90    0.7679    0.2291
     20.00    0.7710    0.2305
     21.00    0.5264    0.1359
     22.00    0.5474    0.1495
     23.00    0.5682    0.1639
     24.00    0.5886    0.1791
     25.00    0.6088    0.1949
     26.00    0.6285    0.2116
     27.00    0.6479    0.2289
     28.00    0.6669    0.2469
     29.00    0.6854    0.2657
     30.00    0.7035    0.2851
     31.00    0.7210    0.3051
     32.00    0.7381    0.3258
     33.00    0.7545    0.3471
     34.00    0.7704    0.3690
     35.00    0.7856    0.3915
     36.00    0.8002    0.4145
     37.00    0.8141    0.4381
     38.00    0.8273    0.4621
     39.00    0.8398    0.4866
     40.00    0.8515    0.5115
     41.00    0.8624    0.5368
     42.00    0.8726    0.5624
     43.00    0.8819    0.5884
     44.00    0.8904    0.6147
     45.00    0.8981    0.6412
     46.00    0.9048    0.6680
     47.00    0.9107    0.6950
     48.00    0.9157    0.7221
     49.00    0.9197    0.7493
     50.00    0.9228    0.7766
     51.00    0.9250    0.8040
     52.00    0.9262    0.8313
     53.00    0.9264    0.8586
     54.00    0.9256    0.8858
     55.00    0.9239    0.9130
     56.00    0.9211    0.9399
     57.00    0.9174    0.9667
     58.00    0.9127    0.9933
     59.00    0.9070    1.0195
     60.00    0.9002    1.0455
     61.00    0.8925    1.0712
     62.00    0.8838    1.0965
     63.00    0.8741    1.1214
     64.00    0.8634    1.1458
     65.00    0.8518    1.1697
     66.00    0.8392    1.1932
     67.00    0.8256    1.2161
     68.00    0.8111    1.2384
     69.00    0.7956    1.2601
     70.00    0.7792    1.2812
     71.00    0.7620    1.3017
     72.00    0.7438    1.3214
     73.00    0.7248    1.3404
     74.00    0.7049    1.3586
     75.00    0.6842    1.3761
     76.00    0.6628    1.3928
     77.00    0.6405    1.4087
     78.00    0.6175    1.4237
     79.00    0.5937    1.4379
     80.00    0.5693    1.4512
     81.00    0.5442    1.4636
     82.00    0.5184    1.4750
     83.00    0.4921    1.4856
     84.00    0.4651    1.4952
     85.00    0.4376    1.5038
     86.00    0.4097    1.5115
     87.00    0.3812    1.5182
     88.00    0.3523    1.5239
     89.00    0.3230    1.5286
     90.00    0.2933    1.5323
     91.00    0.2633    1.5350
     92.00    0.2331    1.5366
     93.00    0.2025    1.5373
     94.00    0.1718    1.5370
     95.00    0.1409    1.5356
     96.00    0.1099    1.5332
     97.00    0.0788    1.5299
     98.00    0.0477    1.5255
     99.00    0.0165    1.5201
    100.00   -0.0146    1.5137
    101.00   -0.0456    1.5064
    102.00   -0.0765    1.4981
    103.00   -0.2646    1.4888
    104.00   -0.2957    1.4786
    105.00   -0.3264    1.4674
    106.00   -0.3567    1.4554
    107.00   -0.3866    1.4424
    108.00   -0.4160    1.4286
    109.00   -0.4449    1.4139
    110.00   -0.4733    1.3983
    111.00   -0.5011    1.3819
    112.00   -0.5282    1.3648
    113.00   -0.5547    1.3468
    114.00   -0.5804    1.3281
    115.00   -0.6055    1.3087
    116.00   -0.6297    1.2885
    117.00   -0.6531    1.2677
    118.00   -0.6757    1.2463
    119.00   -0.6975    1.2242
    120.00   -0.7183    1.2015
    121.00   -0.7381    1.1783
    122.00   -0.7571    1.1545
    123.00   -0.7750    1.1303
    124.00   -0.7919    1.1056
    125.00   -0.8077    1.0804
    126.00   -0.8225    1.0549
    127.00   -0.8362    1.0289
    128.00   -0.8488    1.0027
    129.00   -0.8603    0.9761
    130.00   -0.8706    0.9493
    131.00   -0.8798    0.9223
    132.00   -0.8878    0.8951
    133.00   -0.8946    0.8677
    134.00   -0.9003    0.8402
    135.00   -0.9047    0.8126
    136.00   -0.9080    0.7849
    137.00   -0.9100    0.7573
    138.00   -0.9109    0.7297
    139.00   -0.9105    0.7021
    140.00   -0.9090    0.6746
    141.00   -0.9062    0.6473
    142.00   -0.9023    0.6201
    143.00   -0.8973    0.5931
    144.00   -0.8911    0.5664
    145.00   -0.8837    0.5399
    146.00   -0.8753    0.5137
    147.00   -0.8659    0.4879
    148.00   -0.8554    0.4625
    149.00   -0.8440    0.4374
    150.00   -0.8316    0.4128
    151.00   -0.8185    0.3887
    152.00   -0.8047    0.3651
    153.00   -0.7903    0.3420
    154.00   -0.7756    0.3194
    155.00   -0.7609    0.2975
    156.00   -0.7465    0.2761
    157.00   -0.7332    0.2555
    158.00   -0.7220    0.2355
    159.00   -0.7149    0.2161
    160.00   -0.7158    0.1976
    161.00   -0.7333    0.1797
    162.00   -0.7935    0.1626
    163.00   -1.0176    0.1464
    164.00   -7.9143    0.1309
    165.00    0.1830    0.1163
    166.00   -0.1045    0.1025
    167.00   -0.1740    0.0896
    168.00   -0.1927    0.0776
    169.00   -0.1924    0.0665
    170.00   -0.1838    0.0563
    171.00   -0.1717    0.0470
    172.00   -0.1583    0.0387
    173.00   -0.1447    0.0313
    174.00   -0.1311    0.0249
    175.00   -0.1175    0.0194
    176.00   -0.1039    0.0150
    177.00   -0.0903    0.0115
    178.00   -0.0767    0.0090
    179.00   -0.0631    0.0075
    180.00   -0.0495    0.0070
    180.00   -0.0495    0.0065
