AeroDyn airfoil file Created with QBlade v0.963 64bit on 17.01.2019 at 13:27:42 Compatible with AeroDyn v13.0.
Polar "T1_Re0.100_M0.00_N9.0 360 M" on Foil "T1_Re0.100_M0.00_N9.0" :: generated by QBlade
1              Number of airfoil tables in this file
0              Table ID parameter
14.90          Stall angle (deg)
0              No longer used, enter zero
0              No longer used, enter zero
0              No longer used, enter zero
2.25           Angle of attack for zero Cn for linear Cn curve (deg)
7.03429        Cn slope for zero lift for linear Cn curve (1/rad)
-0.4803        Cn at stall value for positive angle of attack for linear Cn curve
-0.3819        Cn at stall value for negative angle of attack for linear Cn curve
6.70           Angle of attack for minimum CD (deg)
0.0200         Minimum CD value
   -180.00    0.0654    0.0060
   -179.00    0.1790    0.0065
   -178.00    0.2926    0.0080
   -177.00    0.4056    0.0106
   -176.00    0.5129    0.0142
   -175.00    0.6007    0.0187
   -174.00    0.6509    0.0243
   -173.00    0.6571    0.0309
   -172.00    0.6339    0.0385
   -171.00    0.6032    0.0470
   -170.00    0.5792    0.0565
   -169.00    0.5665    0.0670
   -168.00    0.5642    0.0784
   -167.00    0.5702    0.0907
   -166.00    0.5821    0.1039
   -165.00    0.5983    0.1180
   -164.00    0.6172    0.1330
   -163.00    0.6381    0.1488
   -162.00    0.6601    0.1655
   -161.00    0.6827    0.1830
   -160.00    0.7056    0.2012
   -159.00    0.7285    0.2203
   -158.00    0.7512    0.2400
   -157.00    0.7735    0.2605
   -156.00    0.7952    0.2817
   -155.00    0.8163    0.3036
   -154.00    0.8366    0.3260
   -153.00    0.8561    0.3491
   -152.00    0.8747    0.3728
   -151.00    0.8923    0.3970
   -150.00    0.9088    0.4218
   -149.00    0.9243    0.4470
   -148.00    0.9387    0.4727
   -147.00    0.9519    0.4988
   -146.00    0.9639    0.5254
   -145.00    0.9747    0.5522
   -144.00    0.9843    0.5795
   -143.00    0.9925    0.6070
   -142.00    0.9995    0.6348
   -141.00    1.0051    0.6628
   -140.00    1.0094    0.6910
   -139.00    1.0124    0.7193
   -138.00    1.0140    0.7478
   -137.00    1.0142    0.7764
   -136.00    1.0131    0.8050
   -135.00    1.0105    0.8337
   -134.00    1.0066    0.8624
   -133.00    1.0014    0.8910
   -132.00    0.9947    0.9195
   -131.00    0.9867    0.9479
   -130.00    0.9774    0.9762
   -129.00    0.9667    1.0042
   -128.00    0.9546    1.0321
   -127.00    0.9413    1.0597
   -126.00    0.9267    1.0870
   -125.00    0.9108    1.1140
   -124.00    0.8936    1.1407
   -123.00    0.8752    1.1669
   -122.00    0.8556    1.1928
   -121.00    0.8348    1.2182
   -120.00    0.8129    1.2431
   -119.00    0.7899    1.2676
   -118.00    0.7658    1.2915
   -117.00    0.7406    1.3148
   -116.00    0.7144    1.3375
   -115.00    0.6873    1.3597
   -114.00    0.6592    1.3812
   -113.00    0.6303    1.4020
   -112.00    0.6004    1.4221
   -111.00    0.5698    1.4415
   -110.00    0.5384    1.4601
   -109.00    0.5063    1.4780
   -108.00    0.4731    1.4951
   -107.00    0.4397    1.5114
   -106.00    0.4058    1.5269
   -105.00    0.3713    1.5416
   -104.00    0.3363    1.5553
   -103.00    0.3009    1.5682
   -102.00    0.2651    1.5802
   -101.00    0.2290    1.5913
   -100.00    0.1926    1.6015
    -99.00    0.1560    1.6107
    -98.00    0.1192    1.6190
    -97.00    0.0823    1.6264
    -96.00    0.0453    1.6328
    -95.00    0.0082    1.6382
    -94.00   -0.0288    1.6426
    -93.00   -0.0657    1.6461
    -92.00   -0.1026    1.6486
    -91.00   -0.1392    1.6500
    -90.00   -0.1757    1.6505
    -89.00   -0.2119    1.6500
    -88.00   -0.2478    1.6486
    -87.00   -0.2833    1.6461
    -86.00   -0.3184    1.6426
    -85.00   -0.3531    1.6382
    -84.00   -0.3873    1.6328
    -83.00   -0.4209    1.6264
    -82.00   -0.4540    1.6190
    -81.00   -0.4865    1.6107
    -80.00   -0.5183    1.6015
    -79.00   -0.5494    1.5913
    -78.00   -0.5799    1.5802
    -77.00   -0.6095    1.5682
    -76.00   -0.6383    1.5553
    -75.00   -0.6664    1.5416
    -74.00   -0.6935    1.5269
    -73.00   -0.7198    1.5114
    -72.00   -0.7452    1.4951
    -71.00   -0.7696    1.4780
    -70.00   -0.7930    1.4601
    -69.00   -0.8155    1.4415
    -68.00   -0.8369    1.4221
    -67.00   -0.8573    1.4020
    -66.00   -0.8766    1.3812
    -65.00   -0.8949    1.3597
    -64.00   -0.9121    1.3375
    -63.00   -0.9281    1.3148
    -62.00   -0.9431    1.2915
    -61.00   -0.9569    1.2676
    -60.00   -0.9696    1.2431
    -59.00   -0.9812    1.2182
    -58.00   -0.9915    1.1928
    -57.00   -1.0008    1.1669
    -56.00   -1.0088    1.1407
    -55.00   -1.0158    1.1140
    -54.00   -1.0215    1.0870
    -53.00   -1.0261    1.0597
    -52.00   -1.0295    1.0321
    -51.00   -1.0318    1.0042
    -50.00   -1.0329    0.9762
    -49.00   -1.0329    0.9479
    -48.00   -1.0317    0.9195
    -47.00   -1.0294    0.8910
    -46.00   -1.0260    0.8624
    -45.00   -1.0215    0.8337
    -44.00   -1.0160    0.8050
    -43.00   -1.0093    0.7764
    -42.00   -1.0016    0.7478
    -41.00   -0.9929    0.7193
    -40.00   -0.9831    0.6910
    -39.00   -0.9723    0.6628
    -38.00   -0.9606    0.6348
    -37.00   -0.9479    0.6070
    -36.00   -0.9342    0.5795
    -35.00   -0.9197    0.5522
    -34.00   -0.9042    0.5254
    -33.00   -0.8879    0.4988
    -32.00   -0.8708    0.4727
    -31.00   -0.8529    0.4470
    -30.00   -0.8342    0.4218
    -29.00   -0.8147    0.3970
    -28.00   -0.7945    0.3728
    -27.00   -0.7736    0.3491
    -26.00   -0.7521    0.3260
    -25.00   -0.7299    0.3035
    -24.00   -0.7072    0.2817
    -23.00   -0.6838    0.2605
    -22.00   -0.6600    0.2400
    -21.00   -0.6356    0.2203
    -20.00   -0.6108    0.2012
    -19.00   -0.5855    0.1829
    -18.00   -0.5599    0.1655
    -17.00   -0.5340    0.1488
    -16.00   -0.5077    0.1330
    -15.00   -0.4812    0.1180
    -14.00   -0.4546    0.1038
    -13.00   -0.4280    0.0906
    -12.00   -0.4016    0.0782
    -11.00   -0.3761    0.0668
    -10.00   -0.4839    0.1112
     -9.90   -0.4767    0.1106
     -9.80   -0.4719    0.1100
     -9.70   -0.4686    0.1093
     -9.60   -0.4671    0.1086
     -9.50   -0.4676    0.1077
     -9.40   -0.5726    0.1012
     -9.30   -0.6166    0.0991
     -9.20   -0.6643    0.0971
     -9.10   -0.6910    0.0962
     -9.00   -0.6889    0.0957
     -8.90   -0.6591    0.0954
     -8.80   -0.6297    0.0947
     -8.70   -0.6090    0.0933
     -8.60   -0.5899    0.0918
     -8.50   -0.5986    0.0899
     -8.40   -0.6370    0.0878
     -8.30   -0.6787    0.0860
     -8.20   -0.6919    0.0850
     -8.10   -0.6843    0.0842
     -8.00   -0.6770    0.0832
     -7.90   -0.6682    0.0822
     -7.80   -0.6557    0.0810
     -7.70   -0.6639    0.0796
     -7.60   -0.6868    0.0780
     -7.50   -0.7041    0.0765
     -7.40   -0.7137    0.0753
     -7.30   -0.7189    0.0742
     -7.20   -0.7212    0.0731
     -7.10   -0.7235    0.0722
     -7.00   -0.7258    0.0713
     -6.90   -0.7296    0.0705
     -6.80   -0.7332    0.0700
     -6.70   -0.7337    0.0690
     -6.60   -0.7340    0.0676
     -6.50   -0.7343    0.0656
     -6.40   -0.7352    0.0630
     -6.30   -0.7355    0.0597
     -6.20   -0.7358    0.0563
     -6.10   -0.7351    0.0532
     -6.00   -0.7326    0.0500
     -5.90   -0.7285    0.0474
     -5.80   -0.7231    0.0452
     -5.70   -0.7162    0.0435
     -5.60   -0.7090    0.0421
     -5.50   -0.7021    0.0413
     -5.40   -0.6953    0.0405
     -5.30   -0.6885    0.0398
     -5.20   -0.6817    0.0391
     -5.10   -0.6747    0.0385
     -5.00   -0.6676    0.0378
     -4.90   -0.6604    0.0372
     -4.80   -0.6531    0.0366
     -4.70   -0.6457    0.0361
     -4.60   -0.6383    0.0355
     -4.50   -0.6309    0.0350
     -4.40   -0.6234    0.0345
     -4.30   -0.6159    0.0341
     -4.20   -0.6085    0.0336
     -4.10   -0.6011    0.0332
     -4.00   -0.5937    0.0329
     -3.90   -0.5864    0.0325
     -3.80   -0.5791    0.0322
     -3.70   -0.5719    0.0319
     -3.60   -0.5647    0.0316
     -3.50   -0.5577    0.0313
     -3.40   -0.5507    0.0311
     -3.30   -0.5437    0.0308
     -3.20   -0.5366    0.0306
     -3.10   -0.5296    0.0304
     -3.00   -0.5225    0.0302
     -2.90   -0.5154    0.0301
     -2.80   -0.5083    0.0299
     -2.70   -0.5011    0.0298
     -2.60   -0.4936    0.0296
     -2.50   -0.4774    0.0297
     -2.40   -0.4524    0.0299
     -2.30   -0.4270    0.0302
     -2.20   -0.4009    0.0303
     -2.10   -0.3776    0.0300
     -2.00   -0.3628    0.0299
     -1.90   -0.3579    0.0295
     -1.80   -0.3539    0.0293
     -1.70   -0.3506    0.0293
     -1.60   -0.3451    0.0298
     -1.50   -0.3397    0.0302
     -1.40   -0.3333    0.0308
     -1.30   -0.3261    0.0314
     -1.20   -0.3185    0.0321
     -1.10   -0.3090    0.0329
     -1.00   -0.2981    0.0338
     -0.90   -0.2845    0.0350
     -0.80   -0.2743    0.0358
     -0.70   -0.2658    0.0364
     -0.60   -0.2597    0.0367
     -0.50   -0.2553    0.0368
     -0.40   -0.2522    0.0366
     -0.30   -0.2442    0.0365
     -0.20   -0.2326    0.0366
     -0.10   -0.2171    0.0367
      0.00   -0.1983    0.0369
      0.10   -0.1776    0.0372
      0.20   -0.1653    0.0373
      0.30   -0.1576    0.0373
      0.40   -0.1536    0.0371
      0.50   -0.1529    0.0369
      0.60   -0.1551    0.0366
      0.70   -0.1495    0.0365
      0.80   -0.1409    0.0365
      0.90   -0.1297    0.0365
      1.00   -0.1162    0.0364
      1.10   -0.1005    0.0364
      1.20   -0.0825    0.0364
      1.30   -0.0618    0.0365
      1.40   -0.0512    0.0364
      1.50   -0.0441    0.0364
      1.60   -0.0394    0.0362
      1.70   -0.0368    0.0361
      1.80   -0.0359    0.0358
      1.90   -0.0239    0.0356
      2.00   -0.0073    0.0354
      2.10    0.0128    0.0352
      2.20    0.0359    0.0350
      2.30    0.0607    0.0347
      2.40    0.0733    0.0346
      2.50    0.0827    0.0344
      2.60    0.0894    0.0342
      2.70    0.0940    0.0340
      2.80    0.0972    0.0338
      2.90    0.1126    0.0335
      3.00    0.1304    0.0332
      3.10    0.1497    0.0329
      3.20    0.1697    0.0326
      3.30    0.1902    0.0323
      3.40    0.2058    0.0320
      3.50    0.2166    0.0318
      3.60    0.2226    0.0317
      3.70    0.2279    0.0316
      3.80    0.2326    0.0315
      3.90    0.2425    0.0312
      4.00    0.2578    0.0308
      4.10    0.2788    0.0303
      4.20    0.3016    0.0297
      4.30    0.3258    0.0290
      4.40    0.3512    0.0282
      4.50    0.3727    0.0275
      4.60    0.3900    0.0269
      4.70    0.4073    0.0263
      4.80    0.4245    0.0257
      4.90    0.4385    0.0253
      5.00    0.4539    0.0248
      5.10    0.4738    0.0243
      5.20    0.4911    0.0238
      5.30    0.5055    0.0234
      5.40    0.5202    0.0230
      5.50    0.5396    0.0225
      5.60    0.5542    0.0222
      5.70    0.5724    0.0218
      5.80    0.5890    0.0215
      5.90    0.6083    0.0212
      6.00    0.6233    0.0210
      6.10    0.6415    0.0207
      6.20    0.6583    0.0205
      6.30    0.6762    0.0203
      6.40    0.6908    0.0202
      6.50    0.7058    0.0201
      6.60    0.7204    0.0201
      6.70    0.7333    0.0202
      6.80    0.7466    0.0203
      6.90    0.7608    0.0204
      7.00    0.7740    0.0206
      7.10    0.7863    0.0209
      7.20    0.7978    0.0212
      7.30    0.8084    0.0216
      7.40    0.8181    0.0220
      7.50    0.8273    0.0224
      7.60    0.8359    0.0228
      7.70    0.8441    0.0232
      7.80    0.8502    0.0235
      7.90    0.8542    0.0238
      8.00    0.8569    0.0240
      8.10    0.8583    0.0242
      8.20    0.8587    0.0244
      8.30    0.8604    0.0245
      8.40    0.8639    0.0247
      8.50    0.8687    0.0250
      8.60    0.8743    0.0252
      8.70    0.8807    0.0255
      8.80    0.8876    0.0258
      8.90    0.8946    0.0261
      9.00    0.9036    0.0264
      9.10    0.9132    0.0268
      9.20    0.9227    0.0272
      9.30    0.9321    0.0276
      9.40    0.9413    0.0280
      9.50    0.9482    0.0284
      9.60    0.9538    0.0288
      9.70    0.9591    0.0292
      9.80    0.9651    0.0296
      9.90    0.9694    0.0301
     10.00    0.9727    0.0305
     10.10    0.9757    0.0309
     10.20    0.9792    0.0313
     10.30    0.9806    0.0316
     10.40    0.9824    0.0320
     10.50    0.9844    0.0324
     10.60    0.9867    0.0328
     10.70    0.9887    0.0332
     10.80    0.9910    0.0336
     10.90    0.9933    0.0340
     11.00    0.9958    0.0344
     11.10    0.9983    0.0348
     11.20    1.0001    0.0352
     11.30    1.0027    0.0356
     11.40    1.0056    0.0361
     11.50    1.0087    0.0365
     11.60    1.0117    0.0370
     11.70    1.0146    0.0375
     11.80    1.0180    0.0381
     11.90    1.0211    0.0388
     12.00    1.0238    0.0394
     12.10    1.0264    0.0400
     12.20    1.0287    0.0406
     12.30    1.0303    0.0411
     12.40    1.0320    0.0417
     12.50    1.0339    0.0423
     12.60    1.0360    0.0430
     12.70    1.0413    0.0435
     12.80    1.0468    0.0442
     12.90    1.0522    0.0448
     13.00    1.0574    0.0455
     13.10    1.0625    0.0462
     13.20    1.0643    0.0469
     13.30    1.0660    0.0477
     13.40    1.0679    0.0485
     13.50    1.0706    0.0493
     13.60    1.0733    0.0502
     13.70    1.0761    0.0511
     13.80    1.0788    0.0519
     13.90    1.0812    0.0529
     14.00    1.0827    0.0538
     14.10    1.0841    0.0547
     14.20    1.0852    0.0556
     14.30    1.0862    0.0566
     14.40    1.0869    0.0576
     14.50    1.0874    0.0586
     14.60    1.0877    0.0597
     14.70    1.0879    0.0607
     14.80    1.0878    0.0618
     14.90    1.0877    0.0629
     15.00    1.0874    0.0640
     15.10    1.0869    0.0651
     15.20    1.0862    0.0663
     15.30    1.0854    0.0674
     15.40    1.0843    0.0687
     15.50    1.0831    0.0699
     15.60    1.0817    0.0713
     15.70    1.0801    0.0727
     15.80    1.0778    0.0743
     15.90    1.0748    0.0760
     16.00    1.0705    0.0779
     16.10    1.0650    0.0800
     16.20    1.0582    0.0823
     16.30    1.0508    0.0847
     16.40    1.0427    0.0872
     16.50    1.0342    0.0898
     16.60    1.0253    0.0925
     16.70    1.0155    0.0953
     16.80    1.0042    0.0985
     16.90    0.9759    0.1057
     17.00    0.9306    0.1167
     17.10    0.8879    0.1273
     17.20    0.8360    0.1413
     17.30    0.7938    0.1526
     17.40    0.7710    0.1596
     17.50    0.7665    0.1628
     17.60    0.7607    0.1663
     17.70    0.7658    0.1665
     17.80    0.7636    0.1691
     17.90    0.7605    0.1720
     18.00    0.7577    0.1748
     18.10    0.7554    0.1776
     18.20    0.7537    0.1802
     18.30    0.7524    0.1826
     18.40    0.7513    0.1850
     18.50    0.7505    0.1874
     18.60    0.7500    0.1896
     18.70    0.7499    0.1917
     18.80    0.7502    0.1936
     18.90    0.7511    0.1954
     19.00    0.7532    0.1967
     19.10    0.7556    0.1980
     19.20    0.7581    0.1992
     19.30    0.7607    0.2004
     19.40    0.7630    0.2017
     19.50    0.7615    0.2001
     19.60    0.7630    0.2017
     19.70    0.7646    0.2033
     19.80    0.7661    0.2049
     19.90    0.7677    0.2065
     20.00    0.7692    0.2082
     21.00    0.7336    0.1959
     22.00    0.7061    0.2192
     23.00    0.6854    0.2429
     24.00    0.6703    0.2669
     25.00    0.6595    0.2914
     26.00    0.6523    0.3163
     27.00    0.6478    0.3417
     28.00    0.6454    0.3674
     29.00    0.6447    0.3936
     30.00    0.6451    0.4202
     31.00    0.6464    0.4473
     32.00    0.6484    0.4747
     33.00    0.6507    0.5025
     34.00    0.6532    0.5307
     35.00    0.6557    0.5592
     36.00    0.6582    0.5880
     37.00    0.6606    0.6171
     38.00    0.6627    0.6465
     39.00    0.6644    0.6760
     40.00    0.6658    0.7058
     41.00    0.6668    0.7358
     42.00    0.6674    0.7658
     43.00    0.6674    0.7960
     44.00    0.6670    0.8262
     45.00    0.6660    0.8565
     46.00    0.6644    0.8867
     47.00    0.6623    0.9169
     48.00    0.6596    0.9471
     49.00    0.6564    0.9771
     50.00    0.6525    1.0070
     51.00    0.6481    1.0367
     52.00    0.6431    1.0661
     53.00    0.6375    1.0954
     54.00    0.6313    1.1243
     55.00    0.6245    1.1529
     56.00    0.6172    1.1811
     57.00    0.6093    1.2090
     58.00    0.6008    1.2364
     59.00    0.5917    1.2634
     60.00    0.5821    1.2899
     61.00    0.5720    1.3159
     62.00    0.5613    1.3413
     63.00    0.5501    1.3661
     64.00    0.5384    1.3903
     65.00    0.5262    1.4138
     66.00    0.5135    1.4367
     67.00    0.5003    1.4589
     68.00    0.4866    1.4803
     69.00    0.4725    1.5010
     70.00    0.4579    1.5209
     71.00    0.4429    1.5400
     72.00    0.4275    1.5582
     73.00    0.4117    1.5756
     74.00    0.3954    1.5922
     75.00    0.3788    1.6078
     76.00    0.3619    1.6225
     77.00    0.3446    1.6363
     78.00    0.3269    1.6491
     79.00    0.3089    1.6610
     80.00    0.2907    1.6719
     81.00    0.2721    1.6818
     82.00    0.2532    1.6907
     83.00    0.2341    1.6986
     84.00    0.2147    1.7054
     85.00    0.1951    1.7112
     86.00    0.1753    1.7160
     87.00    0.1553    1.7197
     88.00    0.1351    1.7223
     89.00    0.1148    1.7239
     90.00    0.0943    1.7245
     91.00    0.0736    1.7240
     92.00    0.0529    1.7224
     93.00    0.0320    1.7198
     94.00    0.0111    1.7161
     95.00   -0.0099    1.7114
     96.00   -0.0309    1.7056
     97.00   -0.0519    1.6988
     98.00   -0.0730    1.6910
     99.00   -0.0940    1.6821
    100.00   -0.1150    1.6722
    101.00   -0.1359    1.6614
    102.00   -0.1567    1.6496
    103.00   -0.1775    1.6368
    104.00   -0.1981    1.6230
    105.00   -0.2186    1.6084
    106.00   -0.2389    1.5928
    107.00   -0.2591    1.5763
    108.00   -0.2790    1.5589
    109.00   -0.2987    1.5407
    110.00   -0.3181    1.5217
    111.00   -0.3392    1.5018
    112.00   -0.3580    1.4812
    113.00   -0.3765    1.4598
    114.00   -0.3947    1.4377
    115.00   -0.4125    1.4149
    116.00   -0.4299    1.3914
    117.00   -0.4468    1.3673
    118.00   -0.4634    1.3425
    119.00   -0.4794    1.3172
    120.00   -0.4950    1.2913
    121.00   -0.5100    1.2649
    122.00   -0.5245    1.2380
    123.00   -0.5385    1.2107
    124.00   -0.5518    1.1829
    125.00   -0.5645    1.1548
    126.00   -0.5766    1.1263
    127.00   -0.5880    1.0975
    128.00   -0.5988    1.0684
    129.00   -0.6088    1.0391
    130.00   -0.6181    1.0095
    131.00   -0.6266    0.9798
    132.00   -0.6344    0.9499
    133.00   -0.6414    0.9200
    134.00   -0.6475    0.8900
    135.00   -0.6528    0.8600
    136.00   -0.6573    0.8299
    137.00   -0.6609    0.8000
    138.00   -0.6636    0.7701
    139.00   -0.6654    0.7403
    140.00   -0.6664    0.7107
    141.00   -0.6663    0.6813
    142.00   -0.6654    0.6521
    143.00   -0.6635    0.6232
    144.00   -0.6606    0.5945
    145.00   -0.6568    0.5663
    146.00   -0.6520    0.5383
    147.00   -0.6463    0.5108
    148.00   -0.6396    0.4838
    149.00   -0.6319    0.4572
    150.00   -0.6233    0.4311
    151.00   -0.6138    0.4055
    152.00   -0.6033    0.3805
    153.00   -0.5919    0.3561
    154.00   -0.5796    0.3323
    155.00   -0.5664    0.3092
    156.00   -0.5525    0.2867
    157.00   -0.5377    0.2650
    158.00   -0.5223    0.2439
    159.00   -0.5062    0.2237
    160.00   -0.4895    0.2042
    161.00   -0.4725    0.1855
    162.00   -0.4551    0.1677
    163.00   -0.4377    0.1507
    164.00   -0.4205    0.1345
    165.00   -0.4039    0.1193
    166.00   -0.3883    0.1049
    167.00   -0.3744    0.0915
    168.00   -0.3632    0.0790
    169.00   -0.3557    0.0675
    170.00   -0.3536    0.0569
    171.00   -0.3581    0.0473
    172.00   -0.3698    0.0387
    173.00   -0.3860    0.0310
    174.00   -0.3979    0.0244
    175.00   -0.3891    0.0188
    176.00   -0.3446    0.0142
    177.00   -0.2638    0.0106
    178.00   -0.1602    0.0081
    179.00   -0.0481    0.0065
    180.00    0.0654    0.0060
    180.00    0.0654    0.0060
