AeroDyn airfoil file Created with QBlade v0.963 64bit on 17.01.2019 at 13:27:42 Compatible with AeroDyn v13.0.
Polar "T1_Re0.100_M0.00_N9.0 360 M" on Foil "T1_Re0.100_M0.00_N9.0" :: generated by QBlade
1              Number of airfoil tables in this file
0              Table ID parameter
48.00          Stall angle (deg)
0              No longer used, enter zero
0              No longer used, enter zero
0              No longer used, enter zero
-4.73          Angle of attack for zero Cn for linear Cn curve (deg)
7.07510        Cn slope for zero lift for linear Cn curve (1/rad)
-0.3318        Cn at stall value for positive angle of attack for linear Cn curve
-0.1727        Cn at stall value for negative angle of attack for linear Cn curve
-4.30          Angle of attack for minimum CD (deg)
0.0187         Minimum CD value
   -180.00   -0.1213    0.0060
   -179.00   -0.0379    0.0064
   -178.00    0.0396    0.0078
   -177.00    0.1038    0.0100
   -176.00    0.1485    0.0131
   -175.00    0.1736    0.0171
   -174.00    0.1853    0.0220
   -173.00    0.1907    0.0277
   -172.00    0.1950    0.0343
   -171.00    0.2007    0.0418
   -170.00    0.2084    0.0501
   -169.00    0.2180    0.0591
   -168.00    0.2291    0.0691
   -167.00    0.2413    0.0798
   -166.00    0.2542    0.0912
   -165.00    0.2674    0.1035
   -164.00    0.2805    0.1165
   -163.00    0.2936    0.1302
   -162.00    0.3062    0.1447
   -161.00    0.3184    0.1598
   -160.00    0.3301    0.1756
   -159.00    0.3411    0.1921
   -158.00    0.3514    0.2092
   -157.00    0.3610    0.2269
   -156.00    0.3698    0.2452
   -155.00    0.3778    0.2641
   -154.00    0.3850    0.2835
   -153.00    0.3914    0.3034
   -152.00    0.3970    0.3239
   -151.00    0.4018    0.3447
   -150.00    0.4058    0.3661
   -149.00    0.4090    0.3878
   -148.00    0.4114    0.4099
   -147.00    0.4130    0.4324
   -146.00    0.4139    0.4552
   -145.00    0.4140    0.4783
   -144.00    0.4134    0.5017
   -143.00    0.4121    0.5253
   -142.00    0.4102    0.5491
   -141.00    0.4076    0.5732
   -140.00    0.4044    0.5974
   -139.00    0.4006    0.6217
   -138.00    0.3963    0.6461
   -137.00    0.3914    0.6706
   -136.00    0.3860    0.6951
   -135.00    0.3801    0.7196
   -134.00    0.3738    0.7441
   -133.00    0.3670    0.7686
   -132.00    0.3598    0.7929
   -131.00    0.3523    0.8172
   -130.00    0.3444    0.8413
   -129.00    0.3362    0.8653
   -128.00    0.3277    0.8891
   -127.00    0.3190    0.9126
   -126.00    0.3100    0.9359
   -125.00    0.3008    0.9589
   -124.00    0.2914    0.9816
   -123.00    0.2818    1.0040
   -122.00    0.2721    1.0260
   -121.00    0.2623    1.0476
   -120.00    0.2524    1.0689
   -119.00    0.2424    1.0897
   -118.00    0.2323    1.1100
   -117.00    0.2222    1.1298
   -116.00    0.2120    1.1491
   -115.00    0.2018    1.1680
   -114.00    0.1917    1.1862
   -113.00    0.1815    1.2039
   -112.00    0.1713    1.2210
   -111.00    0.1604    1.2374
   -110.00    0.1503    1.2533
   -109.00    0.1403    1.2685
   -108.00    0.1303    1.2830
   -107.00    0.1204    1.2968
   -106.00    0.1105    1.3099
   -105.00    0.1007    1.3223
   -104.00    0.0910    1.3340
   -103.00    0.0813    1.3449
   -102.00    0.0717    1.3551
   -101.00    0.0622    1.3645
   -100.00    0.0528    1.3731
    -99.00    0.0434    1.3810
    -98.00    0.0341    1.3880
    -97.00    0.0249    1.3942
    -96.00    0.0157    1.3996
    -95.00    0.0066    1.4042
    -94.00   -0.0025    1.4080
    -93.00   -0.0115    1.4109
    -92.00   -0.0204    1.4130
    -91.00   -0.0293    1.4143
    -90.00   -0.0381    1.4147
    -89.00   -0.0469    1.4142
    -88.00   -0.0557    1.4130
    -87.00   -0.0644    1.4109
    -86.00   -0.0731    1.4080
    -85.00   -0.0818    1.4042
    -84.00   -0.0904    1.3996
    -83.00   -0.0991    1.3942
    -82.00   -0.1077    1.3880
    -81.00   -0.1162    1.3809
    -80.00   -0.1248    1.3731
    -79.00   -0.1333    1.3645
    -78.00   -0.1419    1.3551
    -77.00   -0.1504    1.3449
    -76.00   -0.1589    1.3340
    -75.00   -0.1674    1.3223
    -74.00   -0.1758    1.3099
    -73.00   -0.1842    1.2967
    -72.00   -0.1926    1.2829
    -71.00   -0.2010    1.2684
    -70.00   -0.2093    1.2532
    -69.00   -0.2175    1.2373
    -68.00   -0.2257    1.2209
    -67.00   -0.2338    1.2038
    -66.00   -0.2419    1.1861
    -65.00   -0.2499    1.1678
    -64.00   -0.2577    1.1490
    -63.00   -0.2655    1.1297
    -62.00   -0.2732    1.1098
    -61.00   -0.2807    1.0895
    -60.00   -0.2880    1.0687
    -59.00   -0.2953    1.0475
    -58.00   -0.3023    1.0258
    -57.00   -0.3091    1.0038
    -56.00   -0.3158    0.9814
    -55.00   -0.3222    0.9587
    -54.00   -0.3283    0.9357
    -53.00   -0.3343    0.9124
    -52.00   -0.3399    0.8888
    -51.00   -0.3452    0.8650
    -50.00   -0.3503    0.8411
    -49.00   -0.3550    0.8169
    -48.00   -0.3593    0.7926
    -47.00   -0.3633    0.7683
    -46.00   -0.3669    0.7438
    -45.00   -0.3701    0.7193
    -44.00   -0.3729    0.6947
    -43.00   -0.3752    0.6702
    -42.00   -0.3771    0.6457
    -41.00   -0.3784    0.6213
    -40.00   -0.3793    0.5969
    -39.00   -0.3797    0.5727
    -38.00   -0.3796    0.5487
    -37.00   -0.3789    0.5248
    -36.00   -0.3777    0.5011
    -35.00   -0.3759    0.4777
    -34.00   -0.3735    0.4546
    -33.00   -0.3705    0.4317
    -32.00   -0.3669    0.4092
    -31.00   -0.3628    0.3871
    -30.00   -0.3580    0.3653
    -29.00   -0.3525    0.3439
    -28.00   -0.3465    0.3230
    -27.00   -0.3398    0.3025
    -26.00   -0.3325    0.2825
    -25.00   -0.3246    0.2630
    -24.00   -0.3161    0.2441
    -23.00   -0.3070    0.2257
    -22.00   -0.2973    0.2079
    -21.00   -0.2871    0.1906
    -20.00   -0.2764    0.1741
    -19.00   -0.2651    0.1581
    -18.00   -0.2534    0.1428
    -17.00   -0.2414    0.1282
    -16.00   -0.2290    0.1143
    -15.00   -0.2164    0.1011
    -14.00   -0.2036    0.0886
    -13.00   -0.1908    0.0769
    -12.00   -0.1779    0.0659
    -11.00   -0.1651    0.0557
    -10.00   -0.3165    0.1156
     -9.90   -0.3323    0.1149
     -9.80   -0.3465    0.1142
     -9.70   -0.3602    0.1135
     -9.60   -0.3727    0.1129
     -9.50   -0.3857    0.1123
     -9.40   -0.4073    0.0931
     -9.30   -0.4210    0.0854
     -9.20   -0.4357    0.0778
     -9.10   -0.4606    0.0707
     -9.00   -0.4683    0.0678
     -8.90   -0.4744    0.0649
     -8.80   -0.4794    0.0621
     -8.70   -0.4816    0.0594
     -8.60   -0.4825    0.0568
     -8.50   -0.4812    0.0545
     -8.40   -0.4779    0.0523
     -8.30   -0.4717    0.0503
     -8.20   -0.4661    0.0485
     -8.10   -0.4586    0.0468
     -8.00   -0.4493    0.0452
     -7.90   -0.4388    0.0437
     -7.80   -0.4300    0.0425
     -7.70   -0.4185    0.0413
     -7.60   -0.4065    0.0402
     -7.50   -0.3939    0.0392
     -7.40   -0.3805    0.0383
     -7.30   -0.3669    0.0375
     -7.20   -0.3534    0.0367
     -7.10   -0.3393    0.0359
     -7.00   -0.3250    0.0352
     -6.90   -0.3108    0.0343
     -6.80   -0.2931    0.0333
     -6.70   -0.2742    0.0321
     -6.60   -0.2568    0.0311
     -6.50   -0.2412    0.0301
     -6.40   -0.2256    0.0292
     -6.30   -0.2102    0.0283
     -6.20   -0.1946    0.0276
     -6.10   -0.1767    0.0268
     -6.00   -0.1591    0.0261
     -5.90   -0.1435    0.0255
     -5.80   -0.1283    0.0250
     -5.70   -0.1137    0.0245
     -5.60   -0.0988    0.0240
     -5.50   -0.0823    0.0234
     -5.40   -0.0671    0.0230
     -5.30   -0.0528    0.0225
     -5.20   -0.0386    0.0221
     -5.10   -0.0253    0.0216
     -5.00   -0.0135    0.0212
     -4.90   -0.0015    0.0208
     -4.80    0.0094    0.0203
     -4.70    0.0185    0.0198
     -4.60    0.0266    0.0195
     -4.50    0.0344    0.0192
     -4.40    0.0427    0.0192
     -4.30    0.0513    0.0193
     -4.20    0.0610    0.0197
     -4.10    0.0712    0.0201
     -4.00    0.0824    0.0205
     -3.90    0.0932    0.0209
     -3.80    0.1035    0.0213
     -3.70    0.1134    0.0217
     -3.60    0.1227    0.0221
     -3.50    0.1326    0.0224
     -3.40    0.1433    0.0228
     -3.30    0.1533    0.0231
     -3.20    0.1627    0.0234
     -3.10    0.1714    0.0237
     -3.00    0.1798    0.0239
     -2.90    0.1897    0.0242
     -2.80    0.2007    0.0244
     -2.70    0.2105    0.0246
     -2.60    0.2194    0.0248
     -2.50    0.2279    0.0250
     -2.40    0.2361    0.0252
     -2.30    0.2446    0.0253
     -2.20    0.2540    0.0254
     -2.10    0.2662    0.0256
     -2.00    0.2779    0.0257
     -1.90    0.2884    0.0259
     -1.80    0.2968    0.0260
     -1.70    0.3055    0.0261
     -1.60    0.3152    0.0261
     -1.50    0.3272    0.0262
     -1.40    0.3408    0.0262
     -1.30    0.3540    0.0262
     -1.20    0.3655    0.0262
     -1.10    0.3753    0.0262
     -1.00    0.3840    0.0262
     -0.90    0.3924    0.0262
     -0.80    0.4029    0.0262
     -0.70    0.4152    0.0261
     -0.60    0.4242    0.0261
     -0.50    0.4333    0.0261
     -0.40    0.4438    0.0261
     -0.30    0.4539    0.0261
     -0.20    0.4644    0.0261
     -0.10    0.4767    0.0261
      0.00    0.4870    0.0261
      0.10    0.4937    0.0261
      0.20    0.4975    0.0260
      0.30    0.5032    0.0260
      0.40    0.5116    0.0260
      0.50    0.5228    0.0259
      0.60    0.5371    0.0259
      0.70    0.5532    0.0259
      0.80    0.5663    0.0260
      0.90    0.5758    0.0260
      1.00    0.5810    0.0260
      1.10    0.5821    0.0261
      1.20    0.5856    0.0261
      1.30    0.5918    0.0261
      1.40    0.6006    0.0261
      1.50    0.6126    0.0261
      1.60    0.6285    0.0261
      1.70    0.6441    0.0261
      1.80    0.6591    0.0262
      1.90    0.6709    0.0263
      2.00    0.6790    0.0264
      2.10    0.6845    0.0266
      2.20    0.6894    0.0267
      2.30    0.6941    0.0268
      2.40    0.7013    0.0269
      2.50    0.7115    0.0270
      2.60    0.7233    0.0271
      2.70    0.7349    0.0272
      2.80    0.7460    0.0273
      2.90    0.7566    0.0273
      3.00    0.7689    0.0273
      3.10    0.7828    0.0274
      3.20    0.7966    0.0275
      3.30    0.8097    0.0277
      3.40    0.8223    0.0279
      3.50    0.8320    0.0282
      3.60    0.8390    0.0284
      3.70    0.8466    0.0287
      3.80    0.8555    0.0289
      3.90    0.8655    0.0292
      4.00    0.8768    0.0294
      4.10    0.8892    0.0296
      4.20    0.9021    0.0297
      4.30    0.9156    0.0299
      4.40    0.9301    0.0300
      4.50    0.9455    0.0301
      4.60    0.9618    0.0303
      4.70    0.9766    0.0306
      4.80    0.9888    0.0309
      4.90    0.9973    0.0313
      5.00    1.0004    0.0317
      5.10    0.9980    0.0321
      5.20    0.9916    0.0325
      5.30    0.9820    0.0329
      5.40    0.9703    0.0333
      5.50    0.9587    0.0337
      5.60    0.9485    0.0341
      5.70    0.9408    0.0345
      5.80    0.9366    0.0349
      5.90    0.9364    0.0352
      6.00    0.9404    0.0356
      6.10    0.9477    0.0358
      6.20    0.9576    0.0360
      6.30    0.9695    0.0362
      6.40    0.9830    0.0364
      6.50    0.9976    0.0366
      6.60    1.0109    0.0370
      6.70    1.0158    0.0377
      6.80    1.0111    0.0391
      6.90    0.9966    0.0413
      7.00    0.9723    0.0442
      7.10    0.9402    0.0477
      7.20    0.9072    0.0516
      7.30    0.8742    0.0556
      7.40    0.8515    0.0585
      7.50    0.8395    0.0605
      7.60    0.8383    0.0616
      7.70    0.8479    0.0617
      7.80    0.8687    0.0608
      7.90    0.8903    0.0600
      8.00    0.9127    0.0591
      8.10    0.9239    0.0596
      8.20    0.9239    0.0614
      8.30    0.9124    0.0646
      8.40    0.8894    0.0691
      8.50    0.8547    0.0750
      8.60    0.8201    0.0808
      8.70    0.7854    0.0866
      8.80    0.7508    0.0924
      8.90    0.7161    0.0982
      9.00    0.6815    0.1040
      9.10    0.6468    0.1099
      9.20    0.6209    0.1147
      9.30    0.6040    0.1185
      9.40    0.5961    0.1214
      9.50    0.5976    0.1233
      9.60    0.6086    0.1242
      9.70    0.6207    0.1253
      9.80    0.6339    0.1264
      9.90    0.6482    0.1276
     10.00    0.6635    0.1290
     10.10    0.6799    0.1305
     10.20    0.6974    0.1323
     10.30    0.7110    0.1343
     10.40    0.7005    0.1353
     10.50    0.6879    0.1362
     10.60    0.6732    0.1368
     10.70    0.6564    0.1371
     10.80    0.6426    0.1370
     10.90    0.6518    0.1379
     11.00    0.6621    0.1388
     11.10    0.6736    0.1398
     11.20    0.6861    0.1410
     11.30    0.6998    0.1423
     11.40    0.7148    0.1438
     11.50    0.7310    0.1456
     11.60    0.7485    0.1476
     11.70    0.7614    0.1498
     11.80    0.7520    0.1508
     11.90    0.7401    0.1516
     12.00    0.7260    0.1520
     12.10    0.7098    0.1521
     12.20    0.6973    0.1518
     12.30    0.7061    0.1527
     12.40    0.7163    0.1536
     12.50    0.7278    0.1547
     12.60    0.7404    0.1560
     12.70    0.7545    0.1575
     12.80    0.7701    0.1592
     12.90    0.7873    0.1614
     13.00    0.8016    0.1638
     13.10    0.7945    0.1649
     13.20    0.7846    0.1657
     13.30    0.7720    0.1662
     13.40    0.7570    0.1662
     13.50    0.7441    0.1658
     13.60    0.7517    0.1666
     13.70    0.7612    0.1676
     13.80    0.7723    0.1686
     13.90    0.7850    0.1699
     14.00    0.7994    0.1715
     14.10    0.8159    0.1736
     14.20    0.8327    0.1762
     14.30    0.8434    0.1788
     14.40    0.8366    0.1798
     14.50    0.8268    0.1805
     14.60    0.8137    0.1808
     14.70    0.7993    0.1804
     14.80    0.7900    0.1799
     14.90    0.7973    0.1808
     15.00    0.8066    0.1817
     15.10    0.8181    0.1829
     15.20    0.8322    0.1844
     15.30    0.8497    0.1866
     15.40    0.8661    0.1893
     15.50    0.8773    0.1920
     15.60    0.8780    0.1938
     15.70    0.8696    0.1945
     15.80    0.8568    0.1946
     15.90    0.8439    0.1941
     16.00    0.8350    0.1935
     16.10    0.8352    0.1936
     16.20    0.8427    0.1945
     16.30    0.8524    0.1957
     16.40    0.8653    0.1972
     16.50    0.8833    0.1999
     16.60    0.8981    0.2026
     16.70    0.9083    0.2054
     16.80    0.9117    0.2074
     16.90    0.9049    0.2082
     17.00    0.8920    0.2079
     17.10    0.8816    0.2075
     17.20    0.8746    0.2071
     17.30    0.8731    0.2071
     17.40    0.8794    0.2081
     17.50    0.8877    0.2091
     17.60    0.8993    0.2105
     17.70    0.9154    0.2132
     17.80    0.9285    0.2158
     17.90    0.9374    0.2184
     18.00    0.9401    0.2204
     18.10    0.9342    0.2215
     18.20    0.9234    0.2214
     18.30    0.9149    0.2213
     18.40    0.9098    0.2213
     18.50    0.9097    0.2217
     18.60    0.9159    0.2227
     18.70    0.9242    0.2238
     18.80    0.9400    0.2261
     18.90    0.9535    0.2286
     19.00    0.9639    0.2311
     19.10    0.9702    0.2334
     19.20    0.9677    0.2351
     19.30    0.9573    0.2355
     19.40    0.9487    0.2358
     19.50    0.9625    0.2365
     19.60    0.9332    0.2346
     19.70    0.9347    0.2354
     19.80    0.9390    0.2364
     19.90    0.9446    0.2374
     20.00    0.9516    0.2384
     21.00    0.9952    0.1699
     22.00    1.0202    0.1863
     23.00    1.0444    0.2035
     24.00    1.0680    0.2214
     25.00    1.0908    0.2400
     26.00    1.1128    0.2593
     27.00    1.1341    0.2793
     28.00    1.1546    0.2999
     29.00    1.1744    0.3211
     30.00    1.1933    0.3429
     31.00    1.2114    0.3652
     32.00    1.2287    0.3881
     33.00    1.2451    0.4114
     34.00    1.2606    0.4352
     35.00    1.2753    0.4595
     36.00    1.2890    0.4842
     37.00    1.3017    0.5092
     38.00    1.3135    0.5346
     39.00    1.3243    0.5603
     40.00    1.3340    0.5862
     41.00    1.3427    0.6124
     42.00    1.3504    0.6389
     43.00    1.3569    0.6654
     44.00    1.3624    0.6921
     45.00    1.3667    0.7189
     46.00    1.3698    0.7458
     47.00    1.3718    0.7727
     48.00    1.3726    0.7996
     49.00    1.3722    0.8265
     50.00    1.3706    0.8533
     51.00    1.3677    0.8800
     52.00    1.3636    0.9065
     53.00    1.3583    0.9329
     54.00    1.3517    0.9590
     55.00    1.3438    0.9849
     56.00    1.3346    1.0105
     57.00    1.3242    1.0358
     58.00    1.3125    1.0608
     59.00    1.2995    1.0854
     60.00    1.2853    1.1096
     61.00    1.2698    1.1333
     62.00    1.2530    1.1566
     63.00    1.2350    1.1793
     64.00    1.2157    1.2015
     65.00    1.1951    1.2232
     66.00    1.1734    1.2443
     67.00    1.1505    1.2648
     68.00    1.1263    1.2846
     69.00    1.1010    1.3037
     70.00    1.0746    1.3222
     71.00    1.0470    1.3400
     72.00    1.0184    1.3570
     73.00    0.9886    1.3732
     74.00    0.9579    1.3887
     75.00    0.9261    1.4034
     76.00    0.8934    1.4173
     77.00    0.8597    1.4303
     78.00    0.8251    1.4425
     79.00    0.7896    1.4538
     80.00    0.7534    1.4642
     81.00    0.7163    1.4738
     82.00    0.6786    1.4824
     83.00    0.6401    1.4901
     84.00    0.6010    1.4969
     85.00    0.5613    1.5027
     86.00    0.5210    1.5076
     87.00    0.4802    1.5116
     88.00    0.4390    1.5146
     89.00    0.3974    1.5167
     90.00    0.3555    1.5178
     91.00    0.3133    1.5179
     92.00    0.2708    1.5171
     93.00    0.2282    1.5153
     94.00    0.1855    1.5125
     95.00    0.1427    1.5088
     96.00    0.0999    1.5042
     97.00    0.0572    1.4986
     98.00    0.0146    1.4921
     99.00   -0.0279    1.4847
    100.00   -0.0701    1.4763
    101.00   -0.1120    1.4671
    102.00   -0.1535    1.4570
    103.00   -0.1947    1.4459
    104.00   -0.2353    1.4341
    105.00   -0.2755    1.4213
    106.00   -0.3151    1.4078
    107.00   -0.3540    1.3934
    108.00   -0.3922    1.3783
    109.00   -0.5511    1.3623
    110.00   -0.5863    1.3456
    111.00   -0.6207    1.3282
    112.00   -0.6542    1.3101
    113.00   -0.6868    1.2913
    114.00   -0.7183    1.2718
    115.00   -0.7488    1.2517
    116.00   -0.7783    1.2310
    117.00   -0.8066    1.2097
    118.00   -0.8337    1.1878
    119.00   -0.8597    1.1655
    120.00   -0.8844    1.1426
    121.00   -0.9078    1.1192
    122.00   -0.9299    1.0954
    123.00   -0.9506    1.0712
    124.00   -0.9700    1.0466
    125.00   -0.9880    1.0217
    126.00   -1.0045    0.9964
    127.00   -1.0196    0.9709
    128.00   -1.0333    0.9451
    129.00   -1.0455    0.9191
    130.00   -1.0562    0.8929
    131.00   -1.0654    0.8666
    132.00   -1.0731    0.8401
    133.00   -1.0792    0.8136
    134.00   -1.0839    0.7869
    135.00   -1.0870    0.7603
    136.00   -1.0887    0.7337
    137.00   -1.0888    0.7071
    138.00   -1.0875    0.6806
    139.00   -1.0847    0.6542
    140.00   -1.0804    0.6280
    141.00   -1.0747    0.6019
    142.00   -1.0676    0.5761
    143.00   -1.0591    0.5505
    144.00   -1.0492    0.5251
    145.00   -1.0380    0.5001
    146.00   -1.0256    0.4754
    147.00   -1.0118    0.4511
    148.00   -0.9969    0.4271
    149.00   -0.9808    0.4036
    150.00   -0.9636    0.3805
    151.00   -0.9453    0.3579
    152.00   -0.9261    0.3358
    153.00   -0.9059    0.3142
    154.00   -0.8849    0.2932
    155.00   -0.8632    0.2728
    156.00   -0.8408    0.2530
    157.00   -0.8179    0.2338
    158.00   -0.7946    0.2153
    159.00   -0.7711    0.1974
    160.00   -0.7475    0.1803
    161.00   -0.7242    0.1638
    162.00   -0.7015    0.1481
    163.00   -0.6798    0.1331
    164.00   -0.6597    0.1189
    165.00   -0.6420    0.1055
    166.00   -0.6275    0.0929
    167.00   -0.6176    0.0811
    168.00   -0.6136    0.0701
    169.00   -0.6166    0.0600
    170.00   -0.6263    0.0507
    171.00   -0.6390    0.0423
    172.00   -0.6461    0.0347
    173.00   -0.6352    0.0280
    174.00   -0.5980    0.0222
    175.00   -0.5361    0.0173
    176.00   -0.4590    0.0133
    177.00   -0.3756    0.0102
    178.00   -0.2909    0.0079
    179.00   -0.2061    0.0066
    180.00   -0.1213    0.0061
    180.00   -0.1213    0.0060
