AeroDyn airfoil file Created with QBlade v0.963 64bit on 17.01.2019 at 13:27:42 Compatible with AeroDyn v13.0.
Polar "T1_Re0.125_M0.00_N9.0 360 M" on Foil "T1_Re0.125_M0.00_N9.0" :: generated by QBlade
1              Number of airfoil tables in this file
0              Table ID parameter
9.70           Stall angle (deg)
0              No longer used, enter zero
0              No longer used, enter zero
0              No longer used, enter zero
-4.98          Angle of attack for zero Cn for linear Cn curve (deg)
6.76214        Cn slope for zero lift for linear Cn curve (1/rad)
-0.4020        Cn at stall value for positive angle of attack for linear Cn curve
-0.4401        Cn at stall value for negative angle of attack for linear Cn curve
-4.30          Angle of attack for minimum CD (deg)
0.0162         Minimum CD value
   -180.00   -0.1274    0.0060
   -179.00   -0.0448    0.0064
   -178.00    0.0303    0.0078
   -177.00    0.0907    0.0100
   -176.00    0.1319    0.0131
   -175.00    0.1554    0.0171
   -174.00    0.1677    0.0220
   -173.00    0.1752    0.0277
   -172.00    0.1819    0.0343
   -171.00    0.1898    0.0418
   -170.00    0.1995    0.0501
   -169.00    0.2108    0.0591
   -168.00    0.2233    0.0691
   -167.00    0.2367    0.0798
   -166.00    0.2507    0.0912
   -165.00    0.2648    0.1035
   -164.00    0.2789    0.1165
   -163.00    0.2928    0.1302
   -162.00    0.3064    0.1447
   -161.00    0.3194    0.1598
   -160.00    0.3319    0.1756
   -159.00    0.3438    0.1921
   -158.00    0.3550    0.2092
   -157.00    0.3654    0.2269
   -156.00    0.3751    0.2452
   -155.00    0.3840    0.2641
   -154.00    0.3921    0.2835
   -153.00    0.3994    0.3034
   -152.00    0.4058    0.3239
   -151.00    0.4115    0.3447
   -150.00    0.4163    0.3661
   -149.00    0.4204    0.3878
   -148.00    0.4236    0.4099
   -147.00    0.4261    0.4324
   -146.00    0.4278    0.4552
   -145.00    0.4287    0.4783
   -144.00    0.4289    0.5017
   -143.00    0.4284    0.5253
   -142.00    0.4272    0.5492
   -141.00    0.4253    0.5732
   -140.00    0.4228    0.5974
   -139.00    0.4196    0.6217
   -138.00    0.4158    0.6461
   -137.00    0.4115    0.6706
   -136.00    0.4066    0.6951
   -135.00    0.4012    0.7196
   -134.00    0.3953    0.7441
   -133.00    0.3889    0.7686
   -132.00    0.3821    0.7929
   -131.00    0.3748    0.8172
   -130.00    0.3672    0.8413
   -129.00    0.3592    0.8653
   -128.00    0.3508    0.8891
   -127.00    0.3422    0.9126
   -126.00    0.3332    0.9359
   -125.00    0.3240    0.9589
   -124.00    0.3145    0.9816
   -123.00    0.3048    1.0040
   -122.00    0.2949    1.0260
   -121.00    0.2849    1.0477
   -120.00    0.2746    1.0689
   -119.00    0.2643    1.0897
   -118.00    0.2538    1.1100
   -117.00    0.2432    1.1298
   -116.00    0.2325    1.1492
   -115.00    0.2218    1.1680
   -114.00    0.2110    1.1862
   -113.00    0.2002    1.2039
   -112.00    0.1885    1.2210
   -111.00    0.1777    1.2374
   -110.00    0.1668    1.2533
   -109.00    0.1560    1.2685
   -108.00    0.1451    1.2830
   -107.00    0.1343    1.2968
   -106.00    0.1235    1.3099
   -105.00    0.1127    1.3223
   -104.00    0.1020    1.3340
   -103.00    0.0913    1.3449
   -102.00    0.0807    1.3551
   -101.00    0.0701    1.3645
   -100.00    0.0596    1.3731
    -99.00    0.0491    1.3810
    -98.00    0.0386    1.3880
    -97.00    0.0283    1.3942
    -96.00    0.0180    1.3996
    -95.00    0.0077    1.4042
    -94.00   -0.0025    1.4080
    -93.00   -0.0126    1.4109
    -92.00   -0.0227    1.4130
    -91.00   -0.0328    1.4143
    -90.00   -0.0427    1.4147
    -89.00   -0.0527    1.4143
    -88.00   -0.0625    1.4130
    -87.00   -0.0724    1.4109
    -86.00   -0.0821    1.4080
    -85.00   -0.0919    1.4042
    -84.00   -0.1016    1.3996
    -83.00   -0.1112    1.3942
    -82.00   -0.1208    1.3880
    -81.00   -0.1303    1.3810
    -80.00   -0.1398    1.3731
    -79.00   -0.1493    1.3645
    -78.00   -0.1586    1.3551
    -77.00   -0.1680    1.3449
    -76.00   -0.1772    1.3340
    -75.00   -0.1865    1.3223
    -74.00   -0.1956    1.3099
    -73.00   -0.2047    1.2968
    -72.00   -0.2137    1.2829
    -71.00   -0.2226    1.2684
    -70.00   -0.2314    1.2532
    -69.00   -0.2401    1.2374
    -68.00   -0.2487    1.2209
    -67.00   -0.2572    1.2038
    -66.00   -0.2656    1.1861
    -65.00   -0.2739    1.1679
    -64.00   -0.2820    1.1491
    -63.00   -0.2899    1.1297
    -62.00   -0.2977    1.1099
    -61.00   -0.3052    1.0896
    -60.00   -0.3126    1.0688
    -59.00   -0.3198    1.0475
    -58.00   -0.3268    1.0259
    -57.00   -0.3335    1.0039
    -56.00   -0.3399    0.9815
    -55.00   -0.3461    0.9588
    -54.00   -0.3520    0.9358
    -53.00   -0.3576    0.9125
    -52.00   -0.3629    0.8889
    -51.00   -0.3678    0.8651
    -50.00   -0.3724    0.8412
    -49.00   -0.3766    0.8170
    -48.00   -0.3805    0.7927
    -47.00   -0.3839    0.7684
    -46.00   -0.3869    0.7439
    -45.00   -0.3895    0.7194
    -44.00   -0.3916    0.6948
    -43.00   -0.3932    0.6703
    -42.00   -0.3944    0.6458
    -41.00   -0.3950    0.6214
    -40.00   -0.3951    0.5971
    -39.00   -0.3947    0.5729
    -38.00   -0.3938    0.5488
    -37.00   -0.3923    0.5249
    -36.00   -0.3902    0.5013
    -35.00   -0.3875    0.4779
    -34.00   -0.3843    0.4548
    -33.00   -0.3804    0.4319
    -32.00   -0.3759    0.4094
    -31.00   -0.3708    0.3873
    -30.00   -0.3651    0.3655
    -29.00   -0.3588    0.3441
    -28.00   -0.3518    0.3232
    -27.00   -0.3443    0.3027
    -26.00   -0.3361    0.2828
    -25.00   -0.3273    0.2633
    -24.00   -0.3179    0.2443
    -23.00   -0.3079    0.2260
    -22.00   -0.2974    0.2082
    -21.00   -0.2863    0.1909
    -20.00   -0.2748    0.1744
    -19.00   -0.2628    0.1584
    -18.00   -0.2504    0.1431
    -17.00   -0.2378    0.1285
    -16.00   -0.2250    0.1146
    -15.00   -0.2121    0.1013
    -14.00   -0.1994    0.0888
    -13.00   -0.1870    0.0770
    -12.00   -0.1751    0.0660
    -11.00   -0.1641    0.0557
    -10.00   -0.3298    0.1002
     -9.90   -0.3356    0.0992
     -9.80   -0.3435    0.0980
     -9.70   -0.3537    0.0967
     -9.60   -0.4495    0.0745
     -9.50   -0.4572    0.0709
     -9.40   -0.4780    0.0626
     -9.30   -0.4829    0.0600
     -9.20   -0.4864    0.0576
     -9.10   -0.4881    0.0551
     -9.00   -0.4874    0.0527
     -8.90   -0.4859    0.0505
     -8.80   -0.4830    0.0484
     -8.70   -0.4780    0.0464
     -8.60   -0.4720    0.0446
     -8.50   -0.4658    0.0430
     -8.40   -0.4573    0.0415
     -8.30   -0.4473    0.0401
     -8.20   -0.4360    0.0389
     -8.10   -0.4246    0.0379
     -8.00   -0.4131    0.0367
     -7.90   -0.4012    0.0354
     -7.80   -0.3890    0.0342
     -7.70   -0.3767    0.0331
     -7.60   -0.3620    0.0319
     -7.50   -0.3450    0.0311
     -7.40   -0.3303    0.0305
     -7.30   -0.3154    0.0301
     -7.20   -0.3002    0.0297
     -7.10   -0.2852    0.0291
     -7.00   -0.2701    0.0284
     -6.90   -0.2510    0.0276
     -6.80   -0.2335    0.0268
     -6.70   -0.2170    0.0259
     -6.60   -0.2004    0.0252
     -6.50   -0.1843    0.0245
     -6.40   -0.1687    0.0238
     -6.30   -0.1519    0.0231
     -6.20   -0.1362    0.0225
     -6.10   -0.1210    0.0220
     -6.00   -0.1058    0.0215
     -5.90   -0.0904    0.0211
     -5.80   -0.0768    0.0208
     -5.70   -0.0630    0.0204
     -5.60   -0.0489    0.0201
     -5.50   -0.0351    0.0198
     -5.40   -0.0243    0.0195
     -5.30   -0.0127    0.0192
     -5.20   -0.0009    0.0189
     -5.10    0.0104    0.0185
     -5.00    0.0197    0.0183
     -4.90    0.0290    0.0179
     -4.80    0.0377    0.0175
     -4.70    0.0455    0.0171
     -4.60    0.0525    0.0168
     -4.50    0.0596    0.0166
     -4.40    0.0671    0.0165
     -4.30    0.0752    0.0165
     -4.20    0.0843    0.0167
     -4.10    0.0939    0.0170
     -4.00    0.1043    0.0173
     -3.90    0.1144    0.0176
     -3.80    0.1245    0.0179
     -3.70    0.1342    0.0181
     -3.60    0.1434    0.0185
     -3.50    0.1528    0.0188
     -3.40    0.1628    0.0190
     -3.30    0.1724    0.0193
     -3.20    0.1816    0.0196
     -3.10    0.1905    0.0198
     -3.00    0.1989    0.0201
     -2.90    0.2076    0.0203
     -2.80    0.2176    0.0205
     -2.70    0.2272    0.0207
     -2.60    0.2364    0.0209
     -2.50    0.2450    0.0211
     -2.40    0.2533    0.0213
     -2.30    0.2608    0.0215
     -2.20    0.2691    0.0216
     -2.10    0.2781    0.0218
     -2.00    0.2878    0.0219
     -1.90    0.2968    0.0221
     -1.80    0.3053    0.0222
     -1.70    0.3130    0.0224
     -1.60    0.3202    0.0225
     -1.50    0.3272    0.0226
     -1.40    0.3353    0.0227
     -1.30    0.3444    0.0227
     -1.20    0.3544    0.0228
     -1.10    0.3641    0.0229
     -1.00    0.3728    0.0230
     -0.90    0.3809    0.0230
     -0.80    0.3885    0.0230
     -0.70    0.3958    0.0230
     -0.60    0.4039    0.0230
     -0.50    0.4129    0.0230
     -0.40    0.4221    0.0230
     -0.30    0.4312    0.0230
     -0.20    0.4404    0.0230
     -0.10    0.4496    0.0230
      0.00    0.4583    0.0230
      0.10    0.4667    0.0230
      0.20    0.4751    0.0229
      0.30    0.4830    0.0229
      0.40    0.4907    0.0229
      0.50    0.4986    0.0229
      0.60    0.5069    0.0228
      0.70    0.5154    0.0228
      0.80    0.5241    0.0228
      0.90    0.5336    0.0228
      1.00    0.5436    0.0228
      1.10    0.5533    0.0228
      1.20    0.5624    0.0229
      1.30    0.5711    0.0229
      1.40    0.5789    0.0229
      1.50    0.5858    0.0229
      1.60    0.5931    0.0229
      1.70    0.6007    0.0229
      1.80    0.6086    0.0229
      1.90    0.6169    0.0229
      2.00    0.6259    0.0229
      2.10    0.6357    0.0230
      2.20    0.6463    0.0230
      2.30    0.6579    0.0231
      2.40    0.6690    0.0232
      2.50    0.6790    0.0232
      2.60    0.6877    0.0233
      2.70    0.6951    0.0234
      2.80    0.7010    0.0234
      2.90    0.7069    0.0234
      3.00    0.7135    0.0235
      3.10    0.7211    0.0235
      3.20    0.7298    0.0236
      3.30    0.7395    0.0236
      3.40    0.7502    0.0236
      3.50    0.7616    0.0236
      3.60    0.7732    0.0237
      3.70    0.7850    0.0238
      3.80    0.7967    0.0239
      3.90    0.8074    0.0241
      4.00    0.8173    0.0243
      4.10    0.8264    0.0245
      4.20    0.8347    0.0246
      4.30    0.8423    0.0248
      4.40    0.8500    0.0249
      4.50    0.8575    0.0251
      4.60    0.8657    0.0252
      4.70    0.8750    0.0253
      4.80    0.8855    0.0255
      4.90    0.8973    0.0256
      5.00    0.9106    0.0257
      5.10    0.9246    0.0258
      5.20    0.9391    0.0259
      5.30    0.9542    0.0260
      5.40    0.9699    0.0262
      5.50    0.9849    0.0265
      5.60    0.9989    0.0268
      5.70    1.0118    0.0271
      5.80    1.0236    0.0274
      5.90    1.0342    0.0277
      6.00    1.0446    0.0280
      6.10    1.0549    0.0283
      6.20    1.0625    0.0286
      6.30    1.0678    0.0289
      6.40    1.0716    0.0292
      6.50    1.0745    0.0294
      6.60    1.0771    0.0296
      6.70    1.0825    0.0299
      6.80    1.0903    0.0301
      6.90    1.0998    0.0303
      7.00    1.1110    0.0304
      7.10    1.1234    0.0306
      7.20    1.1368    0.0308
      7.30    1.1505    0.0311
      7.40    1.1622    0.0314
      7.50    1.1714    0.0318
      7.60    1.1780    0.0323
      7.70    1.1820    0.0329
      7.80    1.1836    0.0334
      7.90    1.1849    0.0340
      8.00    1.1860    0.0346
      8.10    1.1873    0.0352
      8.20    1.1887    0.0359
      8.30    1.1905    0.0365
      8.40    1.1928    0.0371
      8.50    1.1961    0.0377
      8.60    1.2004    0.0382
      8.70    1.2059    0.0387
      8.80    1.2131    0.0391
      8.90    1.2221    0.0395
      9.00    1.2333    0.0397
      9.10    1.2471    0.0399
      9.20    1.2631    0.0400
      9.30    1.2807    0.0401
      9.40    1.2940    0.0405
      9.50    1.2970    0.0412
      9.60    1.2776    0.0444
      9.70    1.2356    0.0500
      9.80    1.1716    0.0579
      9.90    1.0909    0.0679
     10.00    0.9986    0.0799
     10.10    0.9063    0.0919
     10.20    0.8318    0.1020
     10.30    0.7748    0.1101
     10.40    0.7357    0.1163
     10.50    0.7147    0.1204
     10.60    0.7119    0.1226
     10.70    0.7096    0.1246
     10.80    0.7085    0.1266
     10.90    0.7095    0.1284
     11.00    0.7135    0.1302
     11.10    0.7207    0.1318
     11.20    0.7315    0.1333
     11.30    0.7453    0.1347
     11.40    0.7561    0.1347
     11.50    0.7657    0.1346
     11.60    0.7734    0.1345
     11.70    0.7792    0.1344
     11.80    0.7826    0.1343
     11.90    0.7882    0.1355
     12.00    0.7928    0.1369
     12.10    0.7961    0.1385
     12.20    0.7978    0.1402
     12.30    0.7977    0.1421
     12.40    0.7970    0.1440
     12.50    0.7985    0.1459
     12.60    0.8028    0.1476
     12.70    0.8099    0.1493
     12.80    0.8298    0.1473
     12.90    0.8387    0.1469
     13.00    0.8452    0.1466
     13.10    0.8495    0.1464
     13.20    0.8515    0.1462
     13.30    0.8412    0.1496
     13.40    0.8415    0.1516
     13.50    0.8404    0.1536
     13.60    0.8348    0.1558
     13.70    0.8300    0.1580
     13.80    0.8276    0.1601
     13.90    0.8282    0.1620
     14.00    0.8324    0.1639
     14.10    0.8425    0.1636
     14.20    0.8508    0.1636
     14.30    0.8569    0.1635
     14.40    0.8609    0.1635
     14.50    0.8624    0.1636
     14.60    0.8618    0.1656
     14.70    0.8604    0.1676
     14.80    0.8565    0.1695
     14.90    0.8522    0.1713
     15.00    0.8478    0.1731
     15.10    0.8438    0.1748
     15.20    0.8422    0.1765
     15.30    0.8462    0.1774
     15.40    0.8509    0.1783
     15.50    0.8561    0.1791
     15.60    0.8619    0.1798
     15.70    0.8674    0.1804
     15.80    0.8694    0.1819
     15.90    0.8727    0.1827
     16.00    0.8756    0.1835
     16.10    0.8790    0.1842
     16.20    0.8853    0.1842
     16.30    0.8972    0.1834
     16.40    0.9125    0.1825
     16.50    0.9315    0.1810
     16.60    0.9529    0.1793
     16.70    0.9562    0.1801
     16.80    0.9538    0.1818
     16.90    0.9464    0.1843
     17.00    0.9353    0.1874
     17.10    0.9214    0.1910
     17.20    0.9232    0.1923
     17.30    0.9279    0.1931
     17.40    0.9365    0.1932
     17.50    0.9490    0.1926
     17.60    0.9645    0.1915
     17.70    0.9821    0.1901
     17.80    0.9847    0.1911
     17.90    0.9830    0.1929
     18.00    0.9775    0.1954
     18.10    0.9692    0.1983
     18.20    0.9587    0.2016
     18.30    0.9625    0.2025
     18.40    0.9692    0.2029
     18.50    0.9786    0.2028
     18.60    0.9904    0.2021
     18.70    1.0040    0.2011
     18.80    1.0182    0.2000
     18.90    1.0179    0.2018
     19.00    1.0142    0.2042
     19.10    1.0080    0.2072
     19.20    0.9999    0.2105
     19.30    0.9914    0.2138
     19.40    0.9974    0.2142
     19.50    0.9878    0.2146
     19.60    0.9942    0.2149
     19.70    1.0038    0.2144
     19.80    1.0162    0.2134
     19.90    1.0298    0.2121
     20.00    1.0427    0.2108
     21.00    1.0112    0.1677
     22.00    0.9992    0.1876
     23.00    0.9914    0.2080
     24.00    0.9872    0.2290
     25.00    0.9861    0.2505
     26.00    0.9876    0.2726
     27.00    0.9912    0.2951
     28.00    0.9966    0.3180
     29.00    1.0033    0.3415
     30.00    1.0111    0.3653
     31.00    1.0197    0.3895
     32.00    1.0289    0.4141
     33.00    1.0384    0.4391
     34.00    1.0481    0.4644
     35.00    1.0578    0.4900
     36.00    1.0674    0.5159
     37.00    1.0767    0.5421
     38.00    1.0856    0.5685
     39.00    1.0940    0.5951
     40.00    1.1019    0.6218
     41.00    1.1092    0.6488
     42.00    1.1157    0.6758
     43.00    1.1215    0.7029
     44.00    1.1265    0.7301
     45.00    1.1305    0.7573
     46.00    1.1337    0.7845
     47.00    1.1359    0.8117
     48.00    1.1370    0.8388
     49.00    1.1372    0.8658
     50.00    1.1363    0.8927
     51.00    1.1342    0.9194
     52.00    1.1311    0.9460
     53.00    1.1268    0.9723
     54.00    1.1214    0.9983
     55.00    1.1148    1.0241
     56.00    1.1070    1.0495
     57.00    1.0980    1.0746
     58.00    1.0879    1.0994
     59.00    1.0765    1.1237
     60.00    1.0639    1.1475
     61.00    1.0501    1.1709
     62.00    1.0351    1.1938
     63.00    1.0190    1.2162
     64.00    1.0016    1.2380
     65.00    0.9830    1.2593
     66.00    0.9633    1.2799
     67.00    0.9425    1.2999
     68.00    0.9205    1.3193
     69.00    0.8973    1.3379
     70.00    0.8731    1.3559
     71.00    0.8478    1.3731
     72.00    0.8215    1.3896
     73.00    0.7941    1.4053
     74.00    0.7657    1.4203
     75.00    0.7364    1.4344
     76.00    0.7061    1.4477
     77.00    0.6749    1.4602
     78.00    0.6428    1.4718
     79.00    0.6099    1.4825
     80.00    0.5763    1.4924
     81.00    0.5418    1.5013
     82.00    0.5067    1.5094
     83.00    0.4708    1.5165
     84.00    0.4344    1.5227
     85.00    0.3974    1.5279
     86.00    0.3598    1.5323
     87.00    0.3218    1.5356
     88.00    0.2833    1.5381
     89.00    0.2444    1.5395
     90.00    0.2052    1.5401
     91.00    0.1657    1.5396
     92.00    0.1260    1.5382
     93.00    0.0861    1.5359
     94.00    0.0461    1.5326
     95.00    0.0060    1.5283
     96.00   -0.0340    1.5232
     97.00   -0.0741    1.5170
     98.00   -0.1140    1.5100
     99.00   -0.1538    1.5020
    100.00   -0.1934    1.4932
    101.00   -0.2327    1.4834
    102.00   -0.2716    1.4728
    103.00   -0.3102    1.4612
    104.00   -0.3484    1.4489
    105.00   -0.3861    1.4357
    106.00   -0.4232    1.4216
    107.00   -0.4597    1.4068
    108.00   -0.4956    1.3912
    109.00   -0.5347    1.3748
    110.00   -0.5691    1.3577
    111.00   -0.6026    1.3398
    112.00   -0.6353    1.3213
    113.00   -0.6671    1.3021
    114.00   -0.6979    1.2822
    115.00   -0.7278    1.2617
    116.00   -0.7566    1.2406
    117.00   -0.7844    1.2189
    118.00   -0.8110    1.1966
    119.00   -0.8364    1.1739
    120.00   -0.8607    1.1507
    121.00   -0.8838    1.1270
    122.00   -0.9056    1.1028
    123.00   -0.9261    1.0783
    124.00   -0.9452    1.0534
    125.00   -0.9631    1.0281
    126.00   -0.9796    1.0026
    127.00   -0.9946    0.9768
    128.00   -1.0083    0.9507
    129.00   -1.0206    0.9244
    130.00   -1.0314    0.8980
    131.00   -1.0408    0.8714
    132.00   -1.0487    0.8446
    133.00   -1.0552    0.8178
    134.00   -1.0602    0.7910
    135.00   -1.0638    0.7641
    136.00   -1.0658    0.7373
    137.00   -1.0665    0.7105
    138.00   -1.0657    0.6838
    139.00   -1.0634    0.6573
    140.00   -1.0598    0.6308
    141.00   -1.0547    0.6046
    142.00   -1.0483    0.5786
    143.00   -1.0405    0.5528
    144.00   -1.0314    0.5273
    145.00   -1.0210    0.5021
    146.00   -1.0093    0.4772
    147.00   -0.9964    0.4528
    148.00   -0.9823    0.4287
    149.00   -0.9671    0.4050
    150.00   -0.9507    0.3818
    151.00   -0.9334    0.3591
    152.00   -0.9150    0.3369
    153.00   -0.8958    0.3152
    154.00   -0.8757    0.2941
    155.00   -0.8548    0.2736
    156.00   -0.8334    0.2537
    157.00   -0.8113    0.2345
    158.00   -0.7889    0.2158
    159.00   -0.7663    0.1979
    160.00   -0.7436    0.1807
    161.00   -0.7211    0.1642
    162.00   -0.6992    0.1484
    163.00   -0.6783    0.1334
    164.00   -0.6588    0.1191
    165.00   -0.6417    0.1057
    166.00   -0.6278    0.0930
    167.00   -0.6183    0.0812
    168.00   -0.6146    0.0702
    169.00   -0.6177    0.0600
    170.00   -0.6275    0.0507
    171.00   -0.6404    0.0423
    172.00   -0.6481    0.0347
    173.00   -0.6383    0.0280
    174.00   -0.6023    0.0222
    175.00   -0.5415    0.0172
    176.00   -0.4649    0.0132
    177.00   -0.3817    0.0100
    178.00   -0.2970    0.0078
    179.00   -0.2122    0.0065
    180.00   -0.1274    0.0060
    180.00   -0.1274    0.0060
