AeroDyn airfoil file Created with QBlade v0.963 64bit on 17.01.2019 at 13:27:42 Compatible with AeroDyn v13.0.
Polar "T1_Re0.125_M0.00_N9.0 360 M" on Foil "T1_Re0.125_M0.00_N9.0" :: generated by QBlade
1              Number of airfoil tables in this file
0              Table ID parameter
14.80          Stall angle (deg)
0              No longer used, enter zero
0              No longer used, enter zero
0              No longer used, enter zero
-0.83          Angle of attack for zero Cn for linear Cn curve (deg)
5.21577        Cn slope for zero lift for linear Cn curve (1/rad)
-0.8099        Cn at stall value for positive angle of attack for linear Cn curve
-0.6847        Cn at stall value for negative angle of attack for linear Cn curve
8.10           Angle of attack for minimum CD (deg)
0.0208         Minimum CD value
   -180.00   -0.0214    0.0060
   -179.00    0.0793    0.0065
   -178.00    0.1780    0.0078
   -177.00    0.2684    0.0101
   -176.00    0.3386    0.0132
   -175.00    0.3787    0.0173
   -174.00    0.3899    0.0222
   -173.00    0.3838    0.0281
   -172.00    0.3728    0.0348
   -171.00    0.3645    0.0423
   -170.00    0.3617    0.0507
   -169.00    0.3644    0.0600
   -168.00    0.3715    0.0700
   -167.00    0.3820    0.0809
   -166.00    0.3950    0.0926
   -165.00    0.4096    0.1050
   -164.00    0.4253    0.1182
   -163.00    0.4417    0.1322
   -162.00    0.4584    0.1469
   -161.00    0.4752    0.1623
   -160.00    0.4918    0.1784
   -159.00    0.5082    0.1951
   -158.00    0.5242    0.2125
   -157.00    0.5397    0.2305
   -156.00    0.5546    0.2491
   -155.00    0.5689    0.2683
   -154.00    0.5824    0.2881
   -153.00    0.5953    0.3084
   -152.00    0.6074    0.3291
   -151.00    0.6186    0.3504
   -150.00    0.6291    0.3721
   -149.00    0.6387    0.3942
   -148.00    0.6474    0.4167
   -147.00    0.6552    0.4396
   -146.00    0.6622    0.4629
   -145.00    0.6682    0.4864
   -144.00    0.6733    0.5102
   -143.00    0.6775    0.5343
   -142.00    0.6808    0.5586
   -141.00    0.6832    0.5830
   -140.00    0.6846    0.6077
   -139.00    0.6851    0.6325
   -138.00    0.6846    0.6573
   -137.00    0.6833    0.6823
   -136.00    0.6810    0.7073
   -135.00    0.6778    0.7323
   -134.00    0.6737    0.7573
   -133.00    0.6688    0.7822
   -132.00    0.6630    0.8071
   -131.00    0.6563    0.8318
   -130.00    0.6487    0.8564
   -129.00    0.6403    0.8809
   -128.00    0.6311    0.9051
   -127.00    0.6211    0.9292
   -126.00    0.6103    0.9529
   -125.00    0.5988    0.9764
   -124.00    0.5864    0.9996
   -123.00    0.5734    1.0224
   -122.00    0.5596    1.0449
   -121.00    0.5452    1.0670
   -120.00    0.5301    1.0886
   -119.00    0.5144    1.1098
   -118.00    0.4980    1.1306
   -117.00    0.4811    1.1509
   -116.00    0.4635    1.1706
   -115.00    0.4455    1.1898
   -114.00    0.4269    1.2084
   -113.00    0.4078    1.2265
   -112.00    0.3883    1.2439
   -111.00    0.3683    1.2607
   -110.00    0.3454    1.2769
   -109.00    0.3245    1.2924
   -108.00    0.3034    1.3072
   -107.00    0.2819    1.3213
   -106.00    0.2601    1.3348
   -105.00    0.2380    1.3474
   -104.00    0.2157    1.3593
   -103.00    0.1931    1.3705
   -102.00    0.1703    1.3809
   -101.00    0.1474    1.3905
   -100.00    0.1244    1.3993
    -99.00    0.1012    1.4073
    -98.00    0.0779    1.4145
    -97.00    0.0546    1.4208
    -96.00    0.0313    1.4263
    -95.00    0.0080    1.4310
    -94.00   -0.0153    1.4348
    -93.00   -0.0386    1.4378
    -92.00   -0.0618    1.4399
    -91.00   -0.0849    1.4412
    -90.00   -0.1078    1.4416
    -89.00   -0.1306    1.4412
    -88.00   -0.1533    1.4398
    -87.00   -0.1757    1.4377
    -86.00   -0.1979    1.4347
    -85.00   -0.2198    1.4308
    -84.00   -0.2415    1.4261
    -83.00   -0.2628    1.4205
    -82.00   -0.2839    1.4141
    -81.00   -0.3046    1.4069
    -80.00   -0.3250    1.3989
    -79.00   -0.3450    1.3901
    -78.00   -0.3645    1.3804
    -77.00   -0.3837    1.3700
    -76.00   -0.4024    1.3588
    -75.00   -0.4207    1.3468
    -74.00   -0.4384    1.3341
    -73.00   -0.4557    1.3206
    -72.00   -0.4725    1.3065
    -71.00   -0.4888    1.2916
    -70.00   -0.5045    1.2760
    -69.00   -0.5197    1.2598
    -68.00   -0.5343    1.2430
    -67.00   -0.5483    1.2255
    -66.00   -0.5618    1.2073
    -65.00   -0.5746    1.1886
    -64.00   -0.5868    1.1694
    -63.00   -0.5984    1.1496
    -62.00   -0.6094    1.1293
    -61.00   -0.6197    1.1084
    -60.00   -0.6294    1.0871
    -59.00   -0.6384    1.0654
    -58.00   -0.6468    1.0432
    -57.00   -0.6545    1.0207
    -56.00   -0.6616    0.9978
    -55.00   -0.6679    0.9745
    -54.00   -0.6736    0.9509
    -53.00   -0.6787    0.9270
    -52.00   -0.6830    0.9029
    -51.00   -0.6867    0.8786
    -50.00   -0.6897    0.8540
    -49.00   -0.6920    0.8293
    -48.00   -0.6937    0.8044
    -47.00   -0.6948    0.7794
    -46.00   -0.6951    0.7543
    -45.00   -0.6949    0.7292
    -44.00   -0.6940    0.7040
    -43.00   -0.6925    0.6788
    -42.00   -0.6904    0.6537
    -41.00   -0.6877    0.6286
    -40.00   -0.6845    0.6036
    -39.00   -0.6807    0.5787
    -38.00   -0.6765    0.5540
    -37.00   -0.6717    0.5295
    -36.00   -0.6665    0.5051
    -35.00   -0.6609    0.4810
    -34.00   -0.6550    0.4572
    -33.00   -0.6487    0.4336
    -32.00   -0.6422    0.4104
    -31.00   -0.6355    0.3875
    -30.00   -0.6286    0.3649
    -29.00   -0.6218    0.3428
    -28.00   -0.6151    0.3210
    -27.00   -0.6085    0.2997
    -26.00   -0.6023    0.2789
    -25.00   -0.5966    0.2585
    -24.00   -0.5916    0.2387
    -23.00   -0.5875    0.2193
    -22.00   -0.5845    0.2006
    -21.00   -0.5829    0.1824
    -20.00   -0.5831    0.1647
    -19.00   -0.5853    0.1478
    -18.00   -0.5898    0.1314
    -17.00   -0.5971    0.1158
    -16.00   -0.6073    0.1009
    -15.00   -0.6205    0.0868
    -14.00   -0.6365    0.0736
    -13.00   -0.6545    0.0614
    -12.00   -0.6731    0.0504
    -11.00   -0.6897    0.0406
    -10.00   -0.8128    0.0540
     -9.90   -0.8104    0.0531
     -9.80   -0.8069    0.0521
     -9.70   -0.8021    0.0510
     -9.60   -0.7970    0.0497
     -9.50   -0.7926    0.0484
     -9.40   -0.7787    0.0451
     -9.30   -0.7706    0.0440
     -9.20   -0.7631    0.0430
     -9.10   -0.7556    0.0421
     -9.00   -0.7482    0.0413
     -8.90   -0.7410    0.0406
     -8.80   -0.7345    0.0398
     -8.70   -0.7265    0.0389
     -8.60   -0.7174    0.0381
     -8.50   -0.7073    0.0373
     -8.40   -0.6964    0.0365
     -8.30   -0.6864    0.0360
     -8.20   -0.6773    0.0357
     -8.10   -0.6690    0.0353
     -8.00   -0.6614    0.0350
     -7.90   -0.6546    0.0347
     -7.80   -0.6460    0.0344
     -7.70   -0.6367    0.0340
     -7.60   -0.6265    0.0336
     -7.50   -0.6155    0.0332
     -7.40   -0.6038    0.0329
     -7.30   -0.5914    0.0326
     -7.20   -0.5797    0.0325
     -7.10   -0.5698    0.0323
     -7.00   -0.5610    0.0321
     -6.90   -0.5531    0.0317
     -6.80   -0.5461    0.0314
     -6.70   -0.5380    0.0311
     -6.60   -0.5279    0.0307
     -6.50   -0.5165    0.0305
     -6.40   -0.5044    0.0303
     -6.30   -0.4917    0.0301
     -6.20   -0.4785    0.0299
     -6.10   -0.4648    0.0297
     -6.00   -0.4535    0.0295
     -5.90   -0.4441    0.0294
     -5.80   -0.4363    0.0292
     -5.70   -0.4299    0.0290
     -5.60   -0.4246    0.0289
     -5.50   -0.4175    0.0287
     -5.40   -0.4086    0.0285
     -5.30   -0.3983    0.0284
     -5.20   -0.3868    0.0282
     -5.10   -0.3744    0.0281
     -5.00   -0.3612    0.0279
     -4.90   -0.3471    0.0277
     -4.80   -0.3325    0.0276
     -4.70   -0.3214    0.0274
     -4.60   -0.3126    0.0273
     -4.50   -0.3058    0.0272
     -4.40   -0.3005    0.0272
     -4.30   -0.2967    0.0271
     -4.20   -0.2905    0.0271
     -4.10   -0.2827    0.0270
     -4.00   -0.2739    0.0270
     -3.90   -0.2642    0.0271
     -3.80   -0.2536    0.0272
     -3.70   -0.2423    0.0274
     -3.60   -0.2301    0.0276
     -3.50   -0.2172    0.0279
     -3.40   -0.2036    0.0281
     -3.30   -0.1895    0.0284
     -3.20   -0.1809    0.0287
     -3.10   -0.1744    0.0289
     -3.00   -0.1699    0.0291
     -2.90   -0.1669    0.0294
     -2.80   -0.1653    0.0295
     -2.70   -0.1586    0.0298
     -2.60   -0.1500    0.0300
     -2.50   -0.1400    0.0302
     -2.40   -0.1287    0.0304
     -2.30   -0.1162    0.0306
     -2.20   -0.1028    0.0308
     -2.10   -0.0886    0.0310
     -2.00   -0.0739    0.0312
     -1.90   -0.0628    0.0314
     -1.80   -0.0556    0.0315
     -1.70   -0.0503    0.0317
     -1.60   -0.0464    0.0318
     -1.50   -0.0436    0.0320
     -1.40   -0.0377    0.0321
     -1.30   -0.0287    0.0323
     -1.20   -0.0186    0.0324
     -1.10   -0.0077    0.0326
     -1.00    0.0038    0.0327
     -0.90    0.0160    0.0329
     -0.80    0.0292    0.0330
     -0.70    0.0429    0.0332
     -0.60    0.0572    0.0334
     -0.50    0.0667    0.0336
     -0.40    0.0713    0.0338
     -0.30    0.0737    0.0340
     -0.20    0.0749    0.0341
     -0.10    0.0753    0.0344
      0.00    0.0801    0.0345
      0.10    0.0893    0.0346
      0.20    0.1005    0.0347
      0.30    0.1131    0.0347
      0.40    0.1269    0.0347
      0.50    0.1419    0.0348
      0.60    0.1581    0.0348
      0.70    0.1752    0.0349
      0.80    0.1865    0.0350
      0.90    0.1915    0.0352
      1.00    0.1948    0.0353
      1.10    0.1962    0.0355
      1.20    0.1963    0.0357
      1.30    0.2016    0.0358
      1.40    0.2126    0.0359
      1.50    0.2249    0.0360
      1.60    0.2386    0.0361
      1.70    0.2533    0.0361
      1.80    0.2690    0.0362
      1.90    0.2857    0.0362
      2.00    0.3035    0.0361
      2.10    0.3150    0.0362
      2.20    0.3201    0.0363
      2.30    0.3245    0.0364
      2.40    0.3280    0.0366
      2.50    0.3306    0.0367
      2.60    0.3393    0.0368
      2.70    0.3542    0.0368
      2.80    0.3694    0.0367
      2.90    0.3852    0.0367
      3.00    0.4017    0.0366
      3.10    0.4192    0.0366
      3.20    0.4306    0.0366
      3.30    0.4358    0.0368
      3.40    0.4408    0.0370
      3.50    0.4454    0.0371
      3.60    0.4495    0.0372
      3.70    0.4603    0.0372
      3.80    0.4778    0.0370
      3.90    0.4961    0.0368
      4.00    0.5153    0.0365
      4.10    0.5352    0.0362
      4.20    0.5492    0.0361
      4.30    0.5571    0.0362
      4.40    0.5652    0.0363
      4.50    0.5731    0.0363
      4.60    0.5814    0.0362
      4.70    0.5969    0.0359
      4.80    0.6196    0.0352
      4.90    0.6429    0.0344
      5.00    0.6669    0.0336
      5.10    0.6917    0.0327
      5.20    0.7180    0.0318
      5.30    0.7464    0.0308
      5.40    0.7748    0.0298
      5.50    0.7992    0.0289
      5.60    0.8190    0.0284
      5.70    0.8336    0.0281
      5.80    0.8421    0.0281
      5.90    0.8505    0.0281
      6.00    0.8629    0.0279
      6.10    0.8797    0.0275
      6.20    0.9017    0.0267
      6.30    0.9300    0.0256
      6.40    0.9433    0.0253
      6.50    0.9554    0.0250
      6.60    0.9673    0.0247
      6.70    0.9788    0.0244
      6.80    0.9901    0.0241
      6.90    1.0096    0.0233
      7.00    1.0248    0.0228
      7.10    1.0383    0.0224
      7.20    1.0531    0.0220
      7.30    1.0584    0.0220
      7.40    1.0669    0.0218
      7.50    1.0809    0.0215
      7.60    1.0906    0.0213
      7.70    1.0973    0.0213
      7.80    1.1057    0.0212
      7.90    1.1149    0.0211
      8.00    1.1204    0.0212
      8.10    1.1267    0.0212
      8.20    1.1290    0.0215
      8.30    1.1319    0.0218
      8.40    1.1327    0.0222
      8.50    1.1320    0.0227
      8.60    1.1310    0.0233
      8.70    1.1301    0.0239
      8.80    1.1291    0.0245
      8.90    1.1288    0.0251
      9.00    1.1287    0.0257
      9.10    1.1295    0.0263
      9.20    1.1307    0.0269
      9.30    1.1325    0.0275
      9.40    1.1346    0.0281
      9.50    1.1375    0.0286
      9.60    1.1406    0.0292
      9.70    1.1438    0.0297
      9.80    1.1478    0.0302
      9.90    1.1520    0.0307
     10.00    1.1563    0.0312
     10.10    1.1608    0.0317
     10.20    1.1659    0.0322
     10.30    1.1712    0.0327
     10.40    1.1765    0.0332
     10.50    1.1819    0.0337
     10.60    1.1873    0.0341
     10.70    1.1925    0.0346
     10.80    1.1985    0.0351
     10.90    1.2042    0.0356
     11.00    1.2098    0.0361
     11.10    1.2152    0.0366
     11.20    1.2205    0.0371
     11.30    1.2245    0.0376
     11.40    1.2301    0.0381
     11.50    1.2361    0.0386
     11.60    1.2419    0.0391
     11.70    1.2476    0.0397
     11.80    1.2532    0.0402
     11.90    1.2573    0.0407
     12.00    1.2609    0.0413
     12.10    1.2649    0.0418
     12.20    1.2709    0.0424
     12.30    1.2765    0.0429
     12.40    1.2818    0.0435
     12.50    1.2871    0.0441
     12.60    1.2920    0.0447
     12.70    1.2950    0.0453
     12.80    1.2985    0.0458
     12.90    1.3024    0.0464
     13.00    1.3067    0.0470
     13.10    1.3143    0.0476
     13.20    1.3213    0.0482
     13.30    1.3278    0.0489
     13.40    1.3339    0.0496
     13.50    1.3392    0.0503
     13.60    1.3410    0.0510
     13.70    1.3431    0.0518
     13.80    1.3454    0.0525
     13.90    1.3479    0.0532
     14.00    1.3506    0.0540
     14.10    1.3535    0.0547
     14.20    1.3568    0.0554
     14.30    1.3612    0.0561
     14.40    1.3668    0.0570
     14.50    1.3714    0.0580
     14.60    1.3748    0.0590
     14.70    1.3768    0.0601
     14.80    1.3769    0.0613
     14.90    1.3749    0.0622
     15.00    1.3729    0.0633
     15.10    1.3709    0.0643
     15.20    1.3689    0.0654
     15.30    1.3670    0.0665
     15.40    1.3650    0.0675
     15.50    1.3632    0.0686
     15.60    1.3615    0.0697
     15.70    1.3602    0.0707
     15.80    1.3593    0.0717
     15.90    1.3590    0.0727
     16.00    1.3591    0.0737
     16.10    1.3594    0.0747
     16.20    1.3596    0.0759
     16.30    1.3588    0.0772
     16.40    1.3565    0.0787
     16.50    1.3520    0.0806
     16.60    1.3453    0.0828
     16.70    1.3370    0.0851
     16.80    1.3279    0.0875
     16.90    1.3184    0.0898
     17.00    1.3088    0.0921
     17.10    1.2995    0.0944
     17.20    1.2898    0.0967
     17.30    1.2793    0.0993
     17.40    1.2680    0.1020
     17.50    1.2558    0.1049
     17.60    1.2426    0.1081
     17.70    1.2281    0.1117
     17.80    1.2119    0.1156
     17.90    1.1934    0.1202
     18.00    1.1339    0.1373
     18.10    1.0780    0.1540
     18.20    1.0263    0.1702
     18.30    0.9811    0.1853
     18.40    0.9370    0.2022
     18.50    0.9386    0.2063
     18.60    0.9399    0.2111
     18.70    0.9404    0.2161
     18.80    0.9385    0.2215
     18.90    0.9404    0.2244
     19.00    0.9396    0.2273
     19.10    0.9380    0.2294
     19.20    0.9334    0.2311
     19.30    0.9278    0.2327
     19.40    0.9225    0.2342
     19.50    0.9325    0.2332
     19.60    0.9176    0.2338
     19.70    0.9125    0.2353
     19.80    0.9131    0.2370
     19.90    0.9147    0.2386
     20.00    0.9170    0.2402
     21.00    0.8142    0.1745
     22.00    0.7779    0.1963
     23.00    0.7529    0.2182
     24.00    0.7367    0.2403
     25.00    0.7270    0.2626
     26.00    0.7224    0.2851
     27.00    0.7215    0.3079
     28.00    0.7235    0.3311
     29.00    0.7274    0.3547
     30.00    0.7329    0.3785
     31.00    0.7394    0.4028
     32.00    0.7466    0.4274
     33.00    0.7543    0.4523
     34.00    0.7621    0.4776
     35.00    0.7699    0.5031
     36.00    0.7776    0.5290
     37.00    0.7851    0.5551
     38.00    0.7922    0.5815
     39.00    0.7989    0.6081
     40.00    0.8051    0.6348
     41.00    0.8107    0.6617
     42.00    0.8158    0.6888
     43.00    0.8202    0.7159
     44.00    0.8238    0.7431
     45.00    0.8268    0.7704
     46.00    0.8290    0.7976
     47.00    0.8305    0.8249
     48.00    0.8311    0.8520
     49.00    0.8310    0.8791
     50.00    0.8300    0.9061
     51.00    0.8282    0.9328
     52.00    0.8255    0.9594
     53.00    0.8219    0.9858
     54.00    0.8175    1.0120
     55.00    0.8122    1.0378
     56.00    0.8060    1.0633
     57.00    0.7989    1.0885
     58.00    0.7910    1.1133
     59.00    0.7821    1.1377
     60.00    0.7724    1.1617
     61.00    0.7618    1.1852
     62.00    0.7504    1.2082
     63.00    0.7381    1.2306
     64.00    0.7249    1.2525
     65.00    0.7108    1.2738
     66.00    0.6960    1.2946
     67.00    0.6803    1.3146
     68.00    0.6638    1.3341
     69.00    0.6465    1.3528
     70.00    0.6284    1.3708
     71.00    0.6095    1.3881
     72.00    0.5899    1.4047
     73.00    0.5696    1.4205
     74.00    0.5486    1.4355
     75.00    0.5269    1.4496
     76.00    0.5045    1.4630
     77.00    0.4815    1.4755
     78.00    0.4578    1.4871
     79.00    0.4336    1.4979
     80.00    0.4088    1.5078
     81.00    0.3835    1.5167
     82.00    0.3577    1.5248
     83.00    0.3314    1.5319
     84.00    0.3047    1.5381
     85.00    0.2776    1.5434
     86.00    0.2501    1.5477
     87.00    0.2222    1.5511
     88.00    0.1940    1.5535
     89.00    0.1656    1.5550
     90.00    0.1369    1.5554
     91.00    0.1080    1.5550
     92.00    0.0790    1.5535
     93.00    0.0498    1.5512
     94.00    0.0205    1.5478
     95.00   -0.0088    1.5435
     96.00   -0.0382    1.5383
     97.00   -0.0675    1.5321
     98.00   -0.0968    1.5250
     99.00   -0.1259    1.5169
    100.00   -0.1550    1.5080
    101.00   -0.1838    1.4981
    102.00   -0.2125    1.4874
    103.00   -0.2409    1.4757
    104.00   -0.2690    1.4633
    105.00   -0.2967    1.4499
    106.00   -0.3241    1.4358
    107.00   -0.3511    1.4208
    108.00   -0.3776    1.4051
    109.00   -0.4037    1.3885
    110.00   -0.4305    1.3713
    111.00   -0.4555    1.3533
    112.00   -0.4799    1.3346
    113.00   -0.5036    1.3152
    114.00   -0.5267    1.2951
    115.00   -0.5492    1.2744
    116.00   -0.5708    1.2531
    117.00   -0.5918    1.2313
    118.00   -0.6119    1.2089
    119.00   -0.6313    1.1859
    120.00   -0.6498    1.1625
    121.00   -0.6674    1.1386
    122.00   -0.6841    1.1142
    123.00   -0.6999    1.0895
    124.00   -0.7148    1.0644
    125.00   -0.7287    1.0389
    126.00   -0.7417    1.0131
    127.00   -0.7536    0.9871
    128.00   -0.7645    0.9608
    129.00   -0.7743    0.9342
    130.00   -0.7832    0.9075
    131.00   -0.7909    0.8807
    132.00   -0.7976    0.8537
    133.00   -0.8032    0.8267
    134.00   -0.8077    0.7996
    135.00   -0.8111    0.7725
    136.00   -0.8135    0.7454
    137.00   -0.8147    0.7184
    138.00   -0.8148    0.6914
    139.00   -0.8138    0.6646
    140.00   -0.8117    0.6379
    141.00   -0.8086    0.6114
    142.00   -0.8043    0.5851
    143.00   -0.7990    0.5590
    144.00   -0.7926    0.5333
    145.00   -0.7852    0.5078
    146.00   -0.7768    0.4827
    147.00   -0.7673    0.4580
    148.00   -0.7569    0.4337
    149.00   -0.7455    0.4098
    150.00   -0.7332    0.3863
    151.00   -0.7199    0.3633
    152.00   -0.7058    0.3409
    153.00   -0.6909    0.3190
    154.00   -0.6752    0.2977
    155.00   -0.6588    0.2769
    156.00   -0.6417    0.2568
    157.00   -0.6240    0.2373
    158.00   -0.6058    0.2185
    159.00   -0.5872    0.2003
    160.00   -0.5684    0.1829
    161.00   -0.5494    0.1662
    162.00   -0.5304    0.1502
    163.00   -0.5118    0.1350
    164.00   -0.4938    0.1206
    165.00   -0.4769    0.1070
    166.00   -0.4617    0.0942
    167.00   -0.4488    0.0822
    168.00   -0.4393    0.0710
    169.00   -0.4345    0.0607
    170.00   -0.4355    0.0513
    171.00   -0.4434    0.0427
    172.00   -0.4570    0.0351
    173.00   -0.4713    0.0283
    174.00   -0.4749    0.0224
    175.00   -0.4534    0.0174
    176.00   -0.3992    0.0133
    177.00   -0.3180    0.0101
    178.00   -0.2224    0.0078
    179.00   -0.1222    0.0065
    180.00   -0.0214    0.0060
    180.00   -0.0214    0.0060
