AeroDyn airfoil file Created with QBlade v0.963 64bit on 17.01.2019 at 13:27:42 Compatible with AeroDyn v13.0.
Polar "T1_Re0.125_M0.00_N9.0 360 M (2)" on Foil "T1_Re0.125_M0.00_N9.0" :: generated by QBlade
1              Number of airfoil tables in this file
0              Table ID parameter
14.80          Stall angle (deg)
0              No longer used, enter zero
0              No longer used, enter zero
0              No longer used, enter zero
-0.83          Angle of attack for zero Cn for linear Cn curve (deg)
5.21577        Cn slope for zero lift for linear Cn curve (1/rad)
-0.7242        Cn at stall value for positive angle of attack for linear Cn curve
-0.7331        Cn at stall value for negative angle of attack for linear Cn curve
8.10           Angle of attack for minimum CD (deg)
0.0208         Minimum CD value
   -180.00   -0.0214    0.0060
   -179.00    0.0793    0.0065
   -178.00    0.1780    0.0078
   -177.00    0.2684    0.0101
   -176.00    0.3386    0.0132
   -175.00    0.3787    0.0173
   -174.00    0.3899    0.0222
   -173.00    0.3838    0.0281
   -172.00    0.3728    0.0348
   -171.00    0.3645    0.0423
   -170.00    0.3617    0.0507
   -169.00    0.3644    0.0600
   -168.00    0.3715    0.0700
   -167.00    0.3820    0.0809
   -166.00    0.3950    0.0926
   -165.00    0.4096    0.1050
   -164.00    0.4253    0.1182
   -163.00    0.4417    0.1322
   -162.00    0.4584    0.1469
   -161.00    0.4752    0.1623
   -160.00    0.4918    0.1784
   -159.00    0.5082    0.1951
   -158.00    0.5242    0.2125
   -157.00    0.5397    0.2305
   -156.00    0.5546    0.2491
   -155.00    0.5689    0.2683
   -154.00    0.5824    0.2881
   -153.00    0.5953    0.3084
   -152.00    0.6074    0.3291
   -151.00    0.6186    0.3504
   -150.00    0.6291    0.3721
   -149.00    0.6387    0.3942
   -148.00    0.6474    0.4168
   -147.00    0.6552    0.4396
   -146.00    0.6622    0.4629
   -145.00    0.6682    0.4864
   -144.00    0.6733    0.5102
   -143.00    0.6775    0.5343
   -142.00    0.6808    0.5586
   -141.00    0.6832    0.5831
   -140.00    0.6846    0.6077
   -139.00    0.6851    0.6325
   -138.00    0.6846    0.6574
   -137.00    0.6833    0.6823
   -136.00    0.6810    0.7073
   -135.00    0.6778    0.7323
   -134.00    0.6737    0.7573
   -133.00    0.6688    0.7823
   -132.00    0.6630    0.8071
   -131.00    0.6563    0.8319
   -130.00    0.6487    0.8565
   -129.00    0.6403    0.8809
   -128.00    0.6311    0.9052
   -127.00    0.6211    0.9292
   -126.00    0.6103    0.9530
   -125.00    0.5988    0.9765
   -124.00    0.5864    0.9997
   -123.00    0.5734    1.0225
   -122.00    0.5596    1.0450
   -121.00    0.5452    1.0671
   -120.00    0.5301    1.0887
   -119.00    0.5144    1.1100
   -118.00    0.4980    1.1307
   -117.00    0.4811    1.1510
   -116.00    0.4635    1.1707
   -115.00    0.4455    1.1899
   -114.00    0.4269    1.2086
   -113.00    0.4078    1.2266
   -112.00    0.3883    1.2441
   -111.00    0.3683    1.2609
   -110.00    0.3472    1.2771
   -109.00    0.3265    1.2926
   -108.00    0.3054    1.3074
   -107.00    0.2839    1.3215
   -106.00    0.2621    1.3350
   -105.00    0.2401    1.3476
   -104.00    0.2178    1.3596
   -103.00    0.1953    1.3707
   -102.00    0.1727    1.3811
   -101.00    0.1498    1.3907
   -100.00    0.1268    1.3996
    -99.00    0.1037    1.4076
    -98.00    0.0805    1.4147
    -97.00    0.0573    1.4211
    -96.00    0.0340    1.4266
    -95.00    0.0108    1.4313
    -94.00   -0.0125    1.4352
    -93.00   -0.0356    1.4382
    -92.00   -0.0587    1.4403
    -91.00   -0.0817    1.4416
    -90.00   -0.1046    1.4420
    -89.00   -0.1273    1.4416
    -88.00   -0.1498    1.4403
    -87.00   -0.1721    1.4382
    -86.00   -0.1942    1.4352
    -85.00   -0.2160    1.4313
    -84.00   -0.2376    1.4266
    -83.00   -0.2588    1.4211
    -82.00   -0.2797    1.4147
    -81.00   -0.3003    1.4075
    -80.00   -0.3205    1.3995
    -79.00   -0.3403    1.3907
    -78.00   -0.3597    1.3811
    -77.00   -0.3787    1.3707
    -76.00   -0.3973    1.3595
    -75.00   -0.4153    1.3476
    -74.00   -0.4329    1.3349
    -73.00   -0.4500    1.3215
    -72.00   -0.4666    1.3074
    -71.00   -0.4826    1.2925
    -70.00   -0.4981    1.2770
    -69.00   -0.5130    1.2608
    -68.00   -0.5274    1.2440
    -67.00   -0.5411    1.2266
    -66.00   -0.5543    1.2085
    -65.00   -0.5668    1.1899
    -64.00   -0.5787    1.1706
    -63.00   -0.5899    1.1509
    -62.00   -0.6005    1.1306
    -61.00   -0.6105    1.1099
    -60.00   -0.6197    1.0886
    -59.00   -0.6283    1.0670
    -58.00   -0.6362    1.0449
    -57.00   -0.6434    1.0224
    -56.00   -0.6499    0.9996
    -55.00   -0.6557    0.9764
    -54.00   -0.6608    0.9529
    -53.00   -0.6651    0.9291
    -52.00   -0.6688    0.9051
    -51.00   -0.6717    0.8808
    -50.00   -0.6739    0.8564
    -49.00   -0.6754    0.8317
    -48.00   -0.6761    0.8070
    -47.00   -0.6761    0.7821
    -46.00   -0.6754    0.7572
    -45.00   -0.6739    0.7322
    -44.00   -0.6717    0.7072
    -43.00   -0.6688    0.6822
    -42.00   -0.6652    0.6572
    -41.00   -0.6609    0.6323
    -40.00   -0.6558    0.6075
    -39.00   -0.6501    0.5829
    -38.00   -0.6436    0.5584
    -37.00   -0.6364    0.5341
    -36.00   -0.6286    0.5100
    -35.00   -0.6201    0.4862
    -34.00   -0.6109    0.4626
    -33.00   -0.6010    0.4394
    -32.00   -0.5905    0.4165
    -31.00   -0.5794    0.3939
    -30.00   -0.5676    0.3718
    -29.00   -0.5552    0.3501
    -28.00   -0.5422    0.3288
    -27.00   -0.5286    0.3080
    -26.00   -0.5145    0.2877
    -25.00   -0.4998    0.2679
    -24.00   -0.4846    0.2487
    -23.00   -0.4688    0.2301
    -22.00   -0.4526    0.2120
    -21.00   -0.4359    0.1946
    -20.00   -0.4188    0.1778
    -19.00   -0.4012    0.1617
    -18.00   -0.3832    0.1463
    -17.00   -0.3649    0.1316
    -16.00   -0.3463    0.1176
    -15.00   -0.3274    0.1044
    -14.00   -0.3083    0.0919
    -13.00   -0.2890    0.0802
    -12.00   -0.2696    0.0693
    -11.00   -0.2502    0.0592
    -10.00   -0.8128    0.0540
     -9.90   -0.8104    0.0531
     -9.80   -0.8069    0.0521
     -9.70   -0.8021    0.0510
     -9.60   -0.7970    0.0497
     -9.50   -0.7926    0.0484
     -9.40   -0.7913    0.0473
     -9.30   -0.7871    0.0462
     -9.20   -0.7806    0.0451
     -9.10   -0.7722    0.0440
     -9.00   -0.7623    0.0429
     -8.90   -0.7510    0.0419
     -8.80   -0.7492    0.0412
     -8.70   -0.7431    0.0405
     -8.60   -0.7354    0.0399
     -8.50   -0.7263    0.0394
     -8.40   -0.7187    0.0379
     -8.30   -0.7092    0.0368
     -8.20   -0.6976    0.0363
     -8.10   -0.6849    0.0360
     -8.00   -0.6714    0.0357
     -7.90   -0.6691    0.0353
     -7.80   -0.6635    0.0350
     -7.70   -0.6559    0.0347
     -7.60   -0.6471    0.0343
     -7.50   -0.6372    0.0341
     -7.40   -0.6265    0.0339
     -7.30   -0.6166    0.0329
     -7.20   -0.6049    0.0327
     -7.10   -0.5923    0.0326
     -7.00   -0.5788    0.0325
     -6.90   -0.5645    0.0324
     -6.80   -0.5581    0.0322
     -6.70   -0.5551    0.0320
     -6.60   -0.5484    0.0312
     -6.50   -0.5396    0.0309
     -6.40   -0.5292    0.0307
     -6.30   -0.5175    0.0305
     -6.20   -0.5047    0.0304
     -6.10   -0.4915    0.0302
     -6.00   -0.4792    0.0298
     -5.90   -0.4657    0.0296
     -5.80   -0.4513    0.0295
     -5.70   -0.4361    0.0295
     -5.60   -0.4350    0.0293
     -5.50   -0.4325    0.0289
     -5.40   -0.4268    0.0288
     -5.30   -0.4191    0.0287
     -5.20   -0.4098    0.0286
     -5.10   -0.3991    0.0285
     -5.00   -0.3881    0.0281
     -4.90   -0.3755    0.0280
     -4.80   -0.3615    0.0280
     -4.70   -0.3480    0.0277
     -4.60   -0.3327    0.0276
     -4.50   -0.3179    0.0274
     -4.40   -0.3022    0.0273
     -4.30   -0.3063    0.0272
     -4.20   -0.3038    0.0272
     -4.10   -0.2986    0.0271
     -4.00   -0.2914    0.0270
     -3.90   -0.2836    0.0270
     -3.80   -0.2749    0.0270
     -3.70   -0.2651    0.0270
     -3.60   -0.2544    0.0272
     -3.50   -0.2432    0.0274
     -3.40   -0.2306    0.0276
     -3.30   -0.2180    0.0278
     -3.20   -0.2044    0.0281
     -3.10   -0.1898    0.0284
     -3.00   -0.1754    0.0287
     -2.90   -0.1599    0.0291
     -2.80   -0.1750    0.0291
     -2.70   -0.1721    0.0293
     -2.60   -0.1670    0.0295
     -2.50   -0.1604    0.0298
     -2.40   -0.1520    0.0300
     -2.30   -0.1415    0.0302
     -2.20   -0.1293    0.0304
     -2.10   -0.1170    0.0306
     -2.00   -0.1036    0.0308
     -1.90   -0.0894    0.0310
     -1.80   -0.0745    0.0312
     -1.70   -0.0585    0.0314
     -1.60   -0.0434    0.0315
     -1.40   -0.0533    0.0318
     -1.30   -0.0477    0.0320
     -1.20   -0.0393    0.0321
     -1.10   -0.0295    0.0323
     -1.00   -0.0186    0.0325
     -0.90   -0.0084    0.0326
     -0.80    0.0028    0.0327
     -0.70    0.0150    0.0329
     -0.60    0.0282    0.0330
     -0.50    0.0424    0.0332
     -0.40    0.0576    0.0334
     -0.30    0.0715    0.0335
     -0.20    0.0862    0.0337
      0.00    0.0653    0.0342
      0.10    0.0698    0.0344
      0.20    0.0776    0.0345
      0.30    0.0882    0.0347
      0.40    0.0994    0.0347
      0.50    0.1117    0.0347
      0.60    0.1256    0.0347
      0.70    0.1408    0.0348
      0.80    0.1572    0.0348
      0.90    0.1744    0.0349
      1.00    0.1925    0.0349
      1.10    0.2112    0.0351
      1.30    0.1827    0.0356
      1.40    0.1904    0.0357
      1.50    0.2000    0.0358
      1.60    0.2112    0.0359
      1.70    0.2238    0.0360
      1.80    0.2374    0.0361
      1.90    0.2522    0.0362
      2.00    0.2682    0.0362
      2.10    0.2847    0.0362
      2.20    0.3023    0.0361
      2.30    0.3212    0.0361
      2.40    0.3412    0.0361
      2.60    0.3103    0.0368
      2.70    0.3240    0.0368
      2.80    0.3388    0.0368
      3.00    0.3695    0.0367
      3.10    0.3844    0.0367
      3.20    0.4003    0.0367
      3.30    0.4176    0.0366
      3.40    0.4366    0.0365
      3.50    0.4570    0.0363
      3.70    0.4262    0.0376
      3.80    0.4426    0.0374
      3.90    0.4597    0.0372
      4.00    0.4775    0.0370
      4.10    0.4954    0.0368
      4.20    0.5139    0.0366
      4.30    0.5339    0.0363
      4.40    0.5557    0.0359
      4.50    0.5771    0.0355
      4.70    0.5535    0.0371
      4.90    0.5952    0.0360
      5.00    0.6187    0.0352
      5.10    0.6428    0.0344
      5.20    0.6667    0.0336
      5.30    0.6909    0.0327
      5.40    0.7155    0.0319
      5.50    0.7428    0.0309
      5.60    0.7741    0.0298
      5.70    0.8086    0.0286
      5.80    0.8328    0.0276
      6.20    0.8515    0.0286
      6.30    0.8747    0.0277
      6.40    0.8995    0.0268
      6.50    0.9261    0.0258
      6.60    0.9569    0.0246
      6.70    0.9929    0.0232
      6.80    0.9412    0.0261
      6.90    0.9599    0.0253
      7.00    0.9856    0.0242
      7.10    1.0145    0.0230
      7.20    1.0494    0.0217
      7.30    1.0386    0.0224
      7.40    1.0361    0.0227
      7.50    1.0529    0.0222
      7.60    1.0884    0.0209
      7.70    1.0762    0.0217
      7.80    1.0810    0.0217
      7.90    1.1058    0.0209
      8.00    1.1018    0.0214
      8.10    1.1215    0.0208
      8.20    1.1184    0.0212
      8.30    1.1269    0.0212
      8.40    1.1333    0.0213
      8.50    1.1332    0.0217
      8.60    1.1333    0.0221
      8.70    1.1326    0.0227
      8.80    1.1310    0.0233
      8.90    1.1299    0.0239
      9.00    1.1283    0.0245
      9.10    1.1285    0.0251
      9.20    1.1277    0.0258
      9.30    1.1294    0.0263
      9.40    1.1298    0.0270
      9.50    1.1319    0.0275
      9.60    1.1348    0.0280
      9.70    1.1365    0.0287
      9.80    1.1399    0.0292
      9.90    1.1443    0.0297
     10.00    1.1475    0.0302
     10.10    1.1508    0.0308
     10.20    1.1564    0.0313
     10.30    1.1612    0.0317
     10.40    1.1657    0.0322
     10.50    1.1700    0.0327
     10.60    1.1761    0.0332
     10.70    1.1828    0.0337
     10.80    1.1878    0.0341
     10.90    1.1926    0.0346
     11.00    1.1970    0.0351
     11.10    1.2021    0.0356
     11.20    1.2130    0.0361
     11.30    1.2164    0.0366
     11.40    1.2203    0.0371
     11.50    1.2244    0.0376
     11.60    1.2284    0.0381
     11.70    1.2328    0.0386
     11.80    1.2444    0.0391
     11.90    1.2504    0.0397
     12.00    1.2534    0.0402
     12.10    1.2571    0.0407
     12.20    1.2609    0.0413
     12.30    1.2646    0.0418
     12.40    1.2683    0.0423
     12.50    1.2737    0.0429
     12.60    1.2872    0.0435
     12.70    1.2887    0.0441
     12.80    1.2912    0.0447
     12.90    1.2945    0.0453
     13.00    1.2983    0.0458
     13.10    1.3023    0.0464
     13.20    1.3063    0.0470
     13.30    1.3106    0.0475
     13.40    1.3161    0.0481
     13.50    1.3361    0.0490
     13.60    1.3374    0.0496
     13.70    1.3390    0.0503
     13.80    1.3408    0.0510
     13.90    1.3428    0.0518
     14.00    1.3452    0.0525
     14.10    1.3478    0.0532
     14.20    1.3504    0.0540
     14.30    1.3532    0.0547
     14.40    1.3562    0.0554
     14.50    1.3599    0.0560
     14.60    1.3645    0.0567
     14.70    1.3724    0.0576
     14.80    1.3810    0.0594
     14.90    1.3791    0.0603
     15.00    1.3769    0.0612
     15.10    1.3748    0.0622
     15.20    1.3728    0.0632
     15.30    1.3710    0.0643
     15.40    1.3690    0.0654
     15.50    1.3671    0.0664
     15.60    1.3648    0.0676
     15.70    1.3629    0.0686
     15.80    1.3613    0.0697
     15.90    1.3597    0.0707
     16.00    1.3587    0.0717
     16.10    1.3583    0.0727
     16.20    1.3587    0.0737
     16.30    1.3594    0.0746
     16.40    1.3603    0.0757
     16.50    1.3605    0.0769
     16.60    1.3591    0.0784
     16.70    1.3549    0.0802
     16.80    1.3477    0.0825
     16.90    1.3380    0.0851
     17.00    1.3267    0.0878
     17.10    1.3177    0.0899
     17.20    1.3092    0.0920
     17.30    1.3003    0.0942
     17.40    1.2903    0.0966
     17.50    1.2801    0.0991
     17.60    1.2689    0.1018
     17.70    1.2568    0.1047
     17.80    1.2438    0.1078
     17.90    1.2296    0.1113
     18.00    1.2140    0.1151
     18.10    1.1964    0.1194
     18.20    1.1758    0.1245
     18.30    1.1511    0.1307
     18.40    0.9324    0.1966
     18.50    0.9345    0.1986
     18.60    0.9378    0.2004
     18.70    0.9497    0.2004
     18.80    0.9305    0.2150
     18.90    0.9406    0.2171
     19.00    0.9407    0.2228
     19.10    0.9406    0.2252
     19.20    0.9403    0.2274
     19.30    0.9397    0.2295
     19.40    0.9367    0.2315
     19.50    0.9325    0.2332
     19.60    0.9176    0.2338
     19.70    0.9125    0.2353
     19.80    0.9131    0.2370
     19.90    0.9147    0.2386
     20.00    0.9170    0.2402
     21.00    0.8486    0.1716
     22.00    0.8097    0.1935
     23.00    0.7818    0.2156
     24.00    0.7627    0.2378
     25.00    0.7503    0.2603
     26.00    0.7431    0.2830
     27.00    0.7400    0.3060
     28.00    0.7399    0.3293
     29.00    0.7422    0.3530
     30.00    0.7461    0.3770
     31.00    0.7513    0.4014
     32.00    0.7573    0.4261
     33.00    0.7639    0.4511
     34.00    0.7708    0.4765
     35.00    0.7778    0.5021
     36.00    0.7848    0.5280
     37.00    0.7916    0.5542
     38.00    0.7982    0.5807
     39.00    0.8044    0.6073
     40.00    0.8101    0.6341
     41.00    0.8154    0.6611
     42.00    0.8201    0.6882
     43.00    0.8241    0.7153
     44.00    0.8275    0.7426
     45.00    0.8302    0.7699
     46.00    0.8322    0.7971
     47.00    0.8334    0.8244
     48.00    0.8339    0.8516
     49.00    0.8336    0.8787
     50.00    0.8324    0.9057
     51.00    0.8304    0.9325
     52.00    0.8276    0.9591
     53.00    0.8239    0.9855
     54.00    0.8194    1.0117
     55.00    0.8140    1.0375
     56.00    0.8077    1.0631
     57.00    0.8005    1.0883
     58.00    0.7925    1.1131
     59.00    0.7836    1.1375
     60.00    0.7738    1.1615
     61.00    0.7631    1.1850
     62.00    0.7516    1.2080
     63.00    0.7392    1.2304
     64.00    0.7260    1.2523
     65.00    0.7119    1.2737
     66.00    0.6970    1.2944
     67.00    0.6812    1.3145
     68.00    0.6647    1.3339
     69.00    0.6473    1.3527
     70.00    0.6292    1.3707
     71.00    0.6103    1.3880
     72.00    0.5907    1.4046
     73.00    0.5703    1.4204
     74.00    0.5493    1.4353
     75.00    0.5275    1.4495
     76.00    0.5051    1.4629
     77.00    0.4821    1.4754
     78.00    0.4584    1.4870
     79.00    0.4342    1.4978
     80.00    0.4094    1.5077
     81.00    0.3841    1.5167
     82.00    0.3582    1.5247
     83.00    0.3319    1.5319
     84.00    0.3052    1.5381
     85.00    0.2780    1.5433
     86.00    0.2505    1.5477
     87.00    0.2226    1.5510
     88.00    0.1945    1.5535
     89.00    0.1660    1.5549
     90.00    0.1373    1.5554
     91.00    0.1084    1.5549
     92.00    0.0793    1.5535
     93.00    0.0501    1.5511
     94.00    0.0209    1.5478
     95.00   -0.0085    1.5435
     96.00   -0.0379    1.5382
     97.00   -0.0672    1.5320
     98.00   -0.0965    1.5249
     99.00   -0.1256    1.5169
    100.00   -0.1547    1.5079
    101.00   -0.1836    1.4981
    102.00   -0.2122    1.4873
    103.00   -0.2406    1.4757
    104.00   -0.2687    1.4632
    105.00   -0.2965    1.4499
    106.00   -0.3239    1.4358
    107.00   -0.3508    1.4208
    108.00   -0.3774    1.4050
    109.00   -0.4034    1.3885
    110.00   -0.4305    1.3712
    111.00   -0.4555    1.3532
    112.00   -0.4799    1.3345
    113.00   -0.5036    1.3151
    114.00   -0.5267    1.2951
    115.00   -0.5492    1.2744
    116.00   -0.5708    1.2531
    117.00   -0.5918    1.2313
    118.00   -0.6119    1.2088
    119.00   -0.6313    1.1859
    120.00   -0.6498    1.1625
    121.00   -0.6674    1.1386
    122.00   -0.6841    1.1142
    123.00   -0.6999    1.0895
    124.00   -0.7148    1.0644
    125.00   -0.7287    1.0389
    126.00   -0.7417    1.0131
    127.00   -0.7536    0.9871
    128.00   -0.7645    0.9608
    129.00   -0.7743    0.9342
    130.00   -0.7832    0.9075
    131.00   -0.7909    0.8807
    132.00   -0.7976    0.8537
    133.00   -0.8032    0.8267
    134.00   -0.8077    0.7996
    135.00   -0.8111    0.7725
    136.00   -0.8135    0.7454
    137.00   -0.8147    0.7184
    138.00   -0.8148    0.6914
    139.00   -0.8138    0.6646
    140.00   -0.8117    0.6379
    141.00   -0.8086    0.6114
    142.00   -0.8043    0.5851
    143.00   -0.7990    0.5590
    144.00   -0.7926    0.5333
    145.00   -0.7852    0.5078
    146.00   -0.7768    0.4827
    147.00   -0.7673    0.4580
    148.00   -0.7569    0.4337
    149.00   -0.7455    0.4097
    150.00   -0.7332    0.3863
    151.00   -0.7199    0.3633
    152.00   -0.7058    0.3409
    153.00   -0.6909    0.3190
    154.00   -0.6752    0.2977
    155.00   -0.6588    0.2769
    156.00   -0.6417    0.2568
    157.00   -0.6240    0.2373
    158.00   -0.6058    0.2185
    159.00   -0.5872    0.2003
    160.00   -0.5684    0.1829
    161.00   -0.5494    0.1662
    162.00   -0.5304    0.1502
    163.00   -0.5118    0.1350
    164.00   -0.4938    0.1206
    165.00   -0.4769    0.1070
    166.00   -0.4617    0.0942
    167.00   -0.4488    0.0822
    168.00   -0.4393    0.0710
    169.00   -0.4345    0.0607
    170.00   -0.4355    0.0513
    171.00   -0.4434    0.0427
    172.00   -0.4570    0.0351
    173.00   -0.4713    0.0283
    174.00   -0.4749    0.0224
    175.00   -0.4534    0.0174
    176.00   -0.3992    0.0133
    177.00   -0.3180    0.0101
    178.00   -0.2224    0.0078
    179.00   -0.1222    0.0065
    180.00   -0.0214    0.0060
    180.00   -0.0214    0.0060
