AeroDyn airfoil file Created with QBlade v0.963 64bit on 17.01.2019 at 13:27:41 Compatible with AeroDyn v13.0.
Polar "T1_Re0.075_M0.00_N9.0 360 M" on Foil "T1_Re0.075_M0.00_N9.0" :: generated by QBlade
1              Number of airfoil tables in this file
0              Table ID parameter
13.70          Stall angle (deg)
0              No longer used, enter zero
0              No longer used, enter zero
0              No longer used, enter zero
2.43           Angle of attack for zero Cn for linear Cn curve (deg)
8.10402        Cn slope for zero lift for linear Cn curve (1/rad)
-0.5735        Cn at stall value for positive angle of attack for linear Cn curve
-0.4033        Cn at stall value for negative angle of attack for linear Cn curve
-3.30          Angle of attack for minimum CD (deg)
0.0297         Minimum CD value
   -180.00    0.0638    0.0060
   -179.00    0.1686    0.0065
   -178.00    0.2733    0.0078
   -177.00    0.3771    0.0101
   -176.00    0.4740    0.0132
   -175.00    0.5508    0.0173
   -174.00    0.5924    0.0222
   -173.00    0.5959    0.0281
   -172.00    0.5749    0.0348
   -171.00    0.5481    0.0423
   -170.00    0.5270    0.0507
   -169.00    0.5155    0.0600
   -168.00    0.5129    0.0700
   -167.00    0.5176    0.0809
   -166.00    0.5275    0.0926
   -165.00    0.5411    0.1050
   -164.00    0.5573    0.1182
   -163.00    0.5752    0.1322
   -162.00    0.5943    0.1469
   -161.00    0.6139    0.1623
   -160.00    0.6339    0.1783
   -159.00    0.6539    0.1951
   -158.00    0.6737    0.2125
   -157.00    0.6932    0.2305
   -156.00    0.7122    0.2491
   -155.00    0.7307    0.2683
   -154.00    0.7484    0.2881
   -153.00    0.7655    0.3083
   -152.00    0.7818    0.3291
   -151.00    0.7972    0.3504
   -150.00    0.8116    0.3721
   -149.00    0.8252    0.3942
   -148.00    0.8377    0.4167
   -147.00    0.8492    0.4396
   -146.00    0.8597    0.4628
   -145.00    0.8691    0.4864
   -144.00    0.8773    0.5102
   -143.00    0.8845    0.5342
   -142.00    0.8904    0.5585
   -141.00    0.8952    0.5830
   -140.00    0.8989    0.6076
   -139.00    0.9013    0.6324
   -138.00    0.9025    0.6573
   -137.00    0.9025    0.6822
   -136.00    0.9013    0.7072
   -135.00    0.8989    0.7322
   -134.00    0.8952    0.7572
   -133.00    0.8904    0.7822
   -132.00    0.8843    0.8070
   -131.00    0.8770    0.8318
   -130.00    0.8685    0.8564
   -129.00    0.8589    0.8808
   -128.00    0.8480    0.9051
   -127.00    0.8360    0.9291
   -126.00    0.8229    0.9528
   -125.00    0.8086    0.9763
   -124.00    0.7933    0.9995
   -123.00    0.7768    1.0223
   -122.00    0.7593    1.0448
   -121.00    0.7407    1.0669
   -120.00    0.7212    1.0885
   -119.00    0.7006    1.1097
   -118.00    0.6791    1.1305
   -117.00    0.6567    1.1507
   -116.00    0.6334    1.1704
   -115.00    0.6093    1.1896
   -114.00    0.5843    1.2083
   -113.00    0.5586    1.2263
   -112.00    0.5321    1.2438
   -111.00    0.5048    1.2606
   -110.00    0.4770    1.2767
   -109.00    0.4485    1.2922
   -108.00    0.4144    1.3070
   -107.00    0.3847    1.3212
   -106.00    0.3545    1.3346
   -105.00    0.3238    1.3472
   -104.00    0.2927    1.3591
   -103.00    0.2612    1.3703
   -102.00    0.2294    1.3807
   -101.00    0.1973    1.3903
   -100.00    0.1649    1.3990
    -99.00    0.1324    1.4070
    -98.00    0.0996    1.4142
    -97.00    0.0668    1.4205
    -96.00    0.0339    1.4260
    -95.00    0.0010    1.4307
    -94.00   -0.0320    1.4345
    -93.00   -0.0648    1.4375
    -92.00   -0.0976    1.4396
    -91.00   -0.1302    1.4409
    -90.00   -0.1626    1.4413
    -89.00   -0.1948    1.4408
    -88.00   -0.2268    1.4395
    -87.00   -0.2584    1.4373
    -86.00   -0.2896    1.4343
    -85.00   -0.3205    1.4305
    -84.00   -0.3510    1.4257
    -83.00   -0.3810    1.4202
    -82.00   -0.4105    1.4138
    -81.00   -0.4394    1.4066
    -80.00   -0.4678    1.3985
    -79.00   -0.4956    1.3897
    -78.00   -0.5227    1.3800
    -77.00   -0.5492    1.3696
    -76.00   -0.5750    1.3584
    -75.00   -0.6001    1.3464
    -74.00   -0.6244    1.3337
    -73.00   -0.6480    1.3203
    -72.00   -0.6707    1.3061
    -71.00   -0.6926    1.2912
    -70.00   -0.7137    1.2757
    -69.00   -0.7339    1.2594
    -68.00   -0.7533    1.2426
    -67.00   -0.7717    1.2251
    -66.00   -0.7892    1.2070
    -65.00   -0.8057    1.1883
    -64.00   -0.8213    1.1690
    -63.00   -0.8360    1.1493
    -62.00   -0.8497    1.1289
    -61.00   -0.8624    1.1081
    -60.00   -0.8741    1.0869
    -59.00   -0.8848    1.0652
    -58.00   -0.8944    1.0430
    -57.00   -0.9031    1.0205
    -56.00   -0.9108    0.9976
    -55.00   -0.9175    0.9744
    -54.00   -0.9231    0.9508
    -53.00   -0.9278    0.9270
    -52.00   -0.9314    0.9029
    -51.00   -0.9340    0.8786
    -50.00   -0.9357    0.8541
    -49.00   -0.9363    0.8294
    -48.00   -0.9360    0.8046
    -47.00   -0.9346    0.7797
    -46.00   -0.9324    0.7547
    -45.00   -0.9291    0.7297
    -44.00   -0.9250    0.7046
    -43.00   -0.9199    0.6796
    -42.00   -0.9139    0.6545
    -41.00   -0.9070    0.6296
    -40.00   -0.8992    0.6048
    -39.00   -0.8906    0.5801
    -38.00   -0.8811    0.5555
    -37.00   -0.8708    0.5312
    -36.00   -0.8598    0.5071
    -35.00   -0.8479    0.4832
    -34.00   -0.8354    0.4596
    -33.00   -0.8221    0.4364
    -32.00   -0.8080    0.4134
    -31.00   -0.7934    0.3909
    -30.00   -0.7781    0.3687
    -29.00   -0.7621    0.3470
    -28.00   -0.7456    0.3257
    -27.00   -0.7285    0.3049
    -26.00   -0.7109    0.2846
    -25.00   -0.6927    0.2649
    -24.00   -0.6741    0.2457
    -23.00   -0.6551    0.2271
    -22.00   -0.6356    0.2091
    -21.00   -0.6157    0.1917
    -20.00   -0.5955    0.1750
    -19.00   -0.5749    0.1590
    -18.00   -0.5540    0.1437
    -17.00   -0.5328    0.1291
    -16.00   -0.5113    0.1152
    -15.00   -0.4895    0.1021
    -14.00   -0.4674    0.0898
    -13.00   -0.4451    0.0783
    -12.00   -0.4225    0.0676
    -11.00   -0.3996    0.0578
    -10.00   -0.5644    0.1016
     -9.90   -0.5658    0.1000
     -9.80   -0.5697    0.0982
     -9.70   -0.5757    0.0962
     -9.60   -0.5837    0.0940
     -9.50   -0.5939    0.0916
     -9.40   -0.6450    0.0834
     -9.30   -0.6676    0.0806
     -9.20   -0.6928    0.0776
     -9.10   -0.7188    0.0744
     -9.00   -0.7434    0.0712
     -8.90   -0.7645    0.0680
     -8.80   -0.7807    0.0651
     -8.70   -0.7917    0.0625
     -8.60   -0.7981    0.0603
     -8.50   -0.8014    0.0585
     -8.40   -0.8027    0.0568
     -8.30   -0.8027    0.0552
     -8.20   -0.8016    0.0537
     -8.10   -0.7997    0.0523
     -8.00   -0.7970    0.0509
     -7.90   -0.7937    0.0496
     -7.80   -0.7897    0.0483
     -7.70   -0.7851    0.0472
     -7.60   -0.7801    0.0461
     -7.50   -0.7747    0.0450
     -7.40   -0.7690    0.0442
     -7.30   -0.7630    0.0435
     -7.20   -0.7567    0.0428
     -7.10   -0.7501    0.0423
     -7.00   -0.7432    0.0418
     -6.90   -0.7360    0.0412
     -6.80   -0.7286    0.0406
     -6.70   -0.7211    0.0399
     -6.60   -0.7135    0.0391
     -6.50   -0.7059    0.0384
     -6.40   -0.6983    0.0377
     -6.30   -0.6908    0.0370
     -6.20   -0.6831    0.0366
     -6.10   -0.6753    0.0362
     -6.00   -0.6673    0.0359
     -5.90   -0.6594    0.0355
     -5.80   -0.6515    0.0351
     -5.70   -0.6435    0.0347
     -5.60   -0.6355    0.0342
     -5.50   -0.6274    0.0339
     -5.40   -0.6191    0.0335
     -5.30   -0.6108    0.0332
     -5.20   -0.6025    0.0328
     -5.10   -0.5943    0.0325
     -5.00   -0.5860    0.0322
     -4.90   -0.5778    0.0319
     -4.80   -0.5696    0.0317
     -4.70   -0.5614    0.0315
     -4.60   -0.5531    0.0313
     -4.50   -0.5451    0.0310
     -4.40   -0.5370    0.0309
     -4.30   -0.5287    0.0307
     -4.20   -0.5205    0.0305
     -4.10   -0.5124    0.0304
     -4.00   -0.5043    0.0302
     -3.90   -0.4961    0.0301
     -3.80   -0.4882    0.0299
     -3.70   -0.4801    0.0298
     -3.60   -0.4723    0.0298
     -3.50   -0.4646    0.0297
     -3.40   -0.4570    0.0298
     -3.30   -0.4498    0.0299
     -3.20   -0.4428    0.0300
     -3.10   -0.4360    0.0303
     -3.00   -0.4292    0.0305
     -2.90   -0.4227    0.0309
     -2.80   -0.4162    0.0312
     -2.70   -0.4097    0.0316
     -2.60   -0.4033    0.0319
     -2.50   -0.3971    0.0322
     -2.40   -0.3905    0.0325
     -2.30   -0.3842    0.0328
     -2.20   -0.3782    0.0331
     -2.10   -0.3717    0.0334
     -2.00   -0.3653    0.0337
     -1.90   -0.3593    0.0339
     -1.80   -0.3531    0.0342
     -1.70   -0.3466    0.0344
     -1.60   -0.3403    0.0346
     -1.50   -0.3342    0.0348
     -1.40   -0.3281    0.0350
     -1.30   -0.3217    0.0352
     -1.20   -0.3152    0.0354
     -1.10   -0.3092    0.0356
     -1.00   -0.3031    0.0358
     -0.90   -0.2969    0.0359
     -0.80   -0.2905    0.0361
     -0.70   -0.2845    0.0363
     -0.60   -0.2784    0.0364
     -0.50   -0.2723    0.0366
     -0.40   -0.2660    0.0368
     -0.30   -0.2589    0.0370
     -0.20   -0.2516    0.0372
     -0.10   -0.2431    0.0375
      0.00   -0.2339    0.0379
      0.10   -0.2234    0.0383
      0.20   -0.2135    0.0387
      0.30   -0.2037    0.0390
      0.40   -0.1934    0.0394
      0.50   -0.1824    0.0399
      0.60   -0.1732    0.0402
      0.70   -0.1641    0.0405
      0.80   -0.1540    0.0408
      0.90   -0.1436    0.0412
      1.00   -0.1346    0.0415
      1.10   -0.1251    0.0417
      1.20   -0.1151    0.0421
      1.30   -0.1044    0.0424
      1.40   -0.0942    0.0428
      1.50   -0.0844    0.0430
      1.60   -0.0731    0.0434
      1.70   -0.0607    0.0439
      1.80   -0.0496    0.0443
      1.90   -0.0399    0.0445
      2.00   -0.0281    0.0449
      2.10   -0.0146    0.0454
      2.20   -0.0034    0.0458
      2.30    0.0072    0.0460
      2.40    0.0207    0.0464
      2.50    0.0360    0.0470
      2.60    0.0472    0.0474
      2.70    0.0578    0.0476
      2.80    0.0717    0.0480
      2.90    0.0876    0.0486
      3.00    0.0978    0.0487
      3.10    0.1284    0.0488
      3.20    0.1583    0.0489
      3.30    0.1866    0.0489
      3.40    0.2137    0.0487
      3.50    0.2500    0.0487
      3.60    0.2632    0.0489
      3.70    0.2788    0.0491
      3.80    0.2962    0.0494
      3.90    0.3145    0.0496
      4.00    0.3315    0.0498
      4.10    0.3470    0.0501
      4.20    0.3619    0.0504
      4.30    0.3760    0.0507
      4.40    0.3890    0.0509
      4.50    0.4010    0.0511
      4.60    0.4238    0.0514
      4.70    0.4387    0.0516
      4.80    0.4533    0.0519
      4.90    0.4679    0.0520
      5.00    0.4824    0.0521
      5.10    0.4962    0.0521
      5.20    0.5115    0.0523
      5.30    0.5259    0.0524
      5.40    0.5400    0.0524
      5.50    0.5538    0.0524
      5.60    0.5677    0.0523
      5.70    0.5928    0.0519
      5.80    0.6135    0.0516
      5.90    0.6280    0.0515
      6.00    0.6420    0.0513
      6.10    0.6552    0.0511
      6.20    0.6678    0.0509
      6.30    0.6882    0.0503
      6.40    0.7084    0.0498
      6.50    0.7216    0.0496
      6.60    0.7346    0.0493
      6.70    0.7473    0.0490
      6.80    0.7596    0.0486
      6.90    0.7798    0.0477
      7.00    0.8004    0.0468
      7.10    0.8143    0.0463
      7.20    0.8275    0.0459
      7.30    0.8404    0.0454
      7.40    0.8531    0.0447
      7.50    0.8732    0.0436
      7.60    0.8939    0.0424
      7.70    0.9087    0.0416
      7.80    0.9238    0.0407
      7.90    0.9402    0.0396
      8.00    0.9585    0.0384
      8.10    0.9726    0.0375
      8.20    0.9941    0.0360
      8.30    1.0140    0.0346
      8.40    1.0286    0.0337
      8.50    1.0391    0.0332
      8.60    1.0594    0.0320
      8.70    1.0758    0.0312
      8.80    1.0886    0.0307
      8.90    1.1014    0.0303
      9.00    1.1125    0.0302
      9.10    1.1190    0.0305
      9.20    1.1252    0.0309
      9.30    1.1311    0.0313
      9.40    1.1365    0.0318
      9.50    1.1416    0.0324
      9.60    1.1473    0.0329
      9.70    1.1528    0.0334
      9.80    1.1597    0.0339
      9.90    1.1661    0.0344
     10.00    1.1723    0.0349
     10.10    1.1807    0.0355
     10.20    1.1873    0.0360
     10.30    1.1936    0.0365
     10.40    1.2010    0.0371
     10.50    1.2113    0.0376
     10.60    1.2193    0.0382
     10.70    1.2279    0.0388
     10.80    1.2368    0.0394
     10.90    1.2462    0.0400
     11.00    1.2557    0.0406
     11.10    1.2647    0.0412
     11.20    1.2730    0.0419
     11.30    1.2806    0.0426
     11.40    1.2871    0.0432
     11.50    1.2917    0.0438
     11.60    1.2994    0.0445
     11.70    1.3067    0.0452
     11.80    1.3137    0.0460
     11.90    1.3201    0.0468
     12.00    1.3248    0.0476
     12.10    1.3276    0.0483
     12.20    1.3322    0.0490
     12.30    1.3412    0.0499
     12.40    1.3488    0.0507
     12.50    1.3549    0.0516
     12.60    1.3594    0.0525
     12.70    1.3617    0.0535
     12.80    1.3589    0.0542
     12.90    1.3567    0.0550
     13.00    1.3554    0.0558
     13.10    1.3554    0.0565
     13.20    1.3575    0.0573
     13.30    1.3645    0.0583
     13.40    1.3705    0.0594
     13.50    1.3752    0.0605
     13.60    1.3778    0.0617
     13.70    1.3774    0.0631
     13.80    1.3710    0.0643
     13.90    1.3643    0.0655
     14.00    1.3572    0.0668
     14.10    1.3498    0.0681
     14.20    1.3419    0.0696
     14.30    1.3337    0.0711
     14.40    1.3249    0.0727
     14.50    1.3156    0.0744
     14.60    1.3056    0.0762
     14.70    1.2948    0.0781
     14.80    1.2830    0.0802
     14.90    1.2700    0.0824
     15.00    1.2558    0.0847
     15.10    1.2399    0.0874
     15.20    1.2222    0.0903
     15.30    1.2025    0.0936
     15.40    1.1806    0.0974
     15.50    1.1562    0.1018
     15.60    1.1296    0.1070
     15.70    1.1010    0.1130
     15.80    1.0719    0.1196
     15.90    1.0442    0.1267
     16.00    1.0197    0.1338
     16.10    0.9933    0.1426
     16.20    0.9650    0.1529
     16.30    0.9438    0.1621
     16.40    0.9254    0.1744
     16.50    0.9094    0.1861
     16.60    0.9002    0.1949
     16.70    0.8973    0.2008
     16.80    0.8883    0.2059
     16.90    0.8778    0.2062
     17.00    0.8675    0.2061
     17.10    0.8588    0.2059
     17.20    0.8527    0.2060
     17.30    0.8515    0.2068
     17.40    0.8542    0.2081
     17.50    0.8582    0.2096
     17.60    0.8636    0.2112
     17.70    0.8720    0.2133
     17.80    0.8839    0.2169
     17.90    0.8932    0.2202
     18.00    0.8989    0.2229
     18.10    0.8999    0.2248
     18.20    0.8958    0.2258
     18.30    0.8874    0.2253
     18.40    0.8815    0.2250
     18.50    0.8791    0.2252
     18.60    0.8809    0.2261
     18.70    0.8861    0.2276
     18.80    0.8941    0.2296
     18.90    0.9060    0.2332
     19.00    0.9166    0.2371
     19.10    0.9248    0.2407
     19.20    0.9298    0.2439
     19.30    0.9297    0.2459
     19.40    0.9226    0.2459
     19.50    0.9326    0.2471
     19.60    0.9254    0.2468
     19.70    0.9141    0.2451
     19.80    0.9032    0.2436
     19.90    0.9010    0.2444
     20.00    0.9019    0.2458
     21.00    0.7661    0.1659
     22.00    0.7084    0.1893
     23.00    0.6649    0.2125
     24.00    0.6329    0.2355
     25.00    0.6097    0.2586
     26.00    0.5933    0.2818
     27.00    0.5820    0.3052
     28.00    0.5745    0.3288
     29.00    0.5699    0.3527
     30.00    0.5674    0.3769
     31.00    0.5665    0.4014
     32.00    0.5667    0.4262
     33.00    0.5676    0.4513
     34.00    0.5691    0.4767
     35.00    0.5708    0.5023
     36.00    0.5727    0.5283
     37.00    0.5745    0.5545
     38.00    0.5762    0.5809
     39.00    0.5777    0.6076
     40.00    0.5789    0.6344
     41.00    0.5797    0.6614
     42.00    0.5802    0.6884
     43.00    0.5803    0.7156
     44.00    0.5800    0.7429
     45.00    0.5791    0.7701
     46.00    0.5778    0.7974
     47.00    0.5761    0.8247
     48.00    0.5738    0.8518
     49.00    0.5709    0.8789
     50.00    0.5676    0.9059
     51.00    0.5638    0.9327
     52.00    0.5594    0.9593
     53.00    0.5545    0.9857
     54.00    0.5491    1.0119
     55.00    0.5432    1.0377
     56.00    0.5368    1.0632
     57.00    0.5299    1.0884
     58.00    0.5225    1.1132
     59.00    0.5145    1.1377
     60.00    0.5061    1.1616
     61.00    0.4973    1.1851
     62.00    0.4879    1.2081
     63.00    0.4781    1.2306
     64.00    0.4679    1.2525
     65.00    0.4572    1.2738
     66.00    0.4461    1.2945
     67.00    0.4346    1.3146
     68.00    0.4226    1.3340
     69.00    0.4103    1.3528
     70.00    0.3976    1.3708
     71.00    0.3845    1.3881
     72.00    0.3711    1.4047
     73.00    0.3572    1.4204
     74.00    0.3431    1.4354
     75.00    0.3286    1.4496
     76.00    0.3138    1.4630
     77.00    0.2988    1.4755
     78.00    0.2834    1.4871
     79.00    0.2677    1.4979
     80.00    0.2518    1.5078
     81.00    0.2356    1.5167
     82.00    0.2192    1.5248
     83.00    0.2026    1.5319
     84.00    0.1858    1.5381
     85.00    0.1687    1.5434
     86.00    0.1515    1.5477
     87.00    0.1341    1.5511
     88.00    0.1165    1.5535
     89.00    0.0988    1.5550
     90.00    0.0810    1.5554
     91.00    0.0630    1.5550
     92.00    0.0450    1.5535
     93.00    0.0269    1.5511
     94.00    0.0087    1.5478
     95.00   -0.0096    1.5435
     96.00   -0.0279    1.5383
     97.00   -0.0462    1.5321
     98.00   -0.0645    1.5249
     99.00   -0.0828    1.5169
    100.00   -0.1011    1.5080
    101.00   -0.1193    1.4981
    102.00   -0.1375    1.4874
    103.00   -0.1556    1.4757
    104.00   -0.1735    1.4633
    105.00   -0.1914    1.4499
    106.00   -0.2091    1.4358
    107.00   -0.2267    1.4208
    108.00   -0.2441    1.4051
    109.00   -0.2613    1.3885
    110.00   -0.2783    1.3713
    111.00   -0.2963    1.3533
    112.00   -0.3128    1.3346
    113.00   -0.3291    1.3152
    114.00   -0.3450    1.2951
    115.00   -0.3606    1.2744
    116.00   -0.3758    1.2531
    117.00   -0.3907    1.2313
    118.00   -0.4053    1.2089
    119.00   -0.4194    1.1859
    120.00   -0.4331    1.1625
    121.00   -0.4463    1.1386
    122.00   -0.4591    1.1142
    123.00   -0.4714    1.0895
    124.00   -0.4832    1.0644
    125.00   -0.4944    1.0389
    126.00   -0.5051    1.0131
    127.00   -0.5152    0.9871
    128.00   -0.5247    0.9608
    129.00   -0.5336    0.9342
    130.00   -0.5418    0.9075
    131.00   -0.5494    0.8807
    132.00   -0.5563    0.8537
    133.00   -0.5625    0.8267
    134.00   -0.5680    0.7996
    135.00   -0.5728    0.7725
    136.00   -0.5768    0.7454
    137.00   -0.5801    0.7184
    138.00   -0.5826    0.6914
    139.00   -0.5843    0.6646
    140.00   -0.5851    0.6379
    141.00   -0.5852    0.6114
    142.00   -0.5845    0.5851
    143.00   -0.5829    0.5590
    144.00   -0.5804    0.5333
    145.00   -0.5771    0.5078
    146.00   -0.5730    0.4827
    147.00   -0.5680    0.4580
    148.00   -0.5622    0.4337
    149.00   -0.5555    0.4098
    150.00   -0.5480    0.3863
    151.00   -0.5396    0.3633
    152.00   -0.5304    0.3409
    153.00   -0.5204    0.3190
    154.00   -0.5097    0.2977
    155.00   -0.4982    0.2769
    156.00   -0.4859    0.2568
    157.00   -0.4730    0.2373
    158.00   -0.4594    0.2185
    159.00   -0.4453    0.2003
    160.00   -0.4308    0.1829
    161.00   -0.4158    0.1662
    162.00   -0.4007    0.1502
    163.00   -0.3855    0.1350
    164.00   -0.3705    0.1206
    165.00   -0.3560    0.1070
    166.00   -0.3425    0.0942
    167.00   -0.3304    0.0822
    168.00   -0.3207    0.0710
    169.00   -0.3142    0.0607
    170.00   -0.3120    0.0513
    171.00   -0.3154    0.0427
    172.00   -0.3246    0.0351
    173.00   -0.3376    0.0283
    174.00   -0.3475    0.0224
    175.00   -0.3410    0.0174
    176.00   -0.3048    0.0133
    177.00   -0.2356    0.0101
    178.00   -0.1432    0.0078
    179.00   -0.0409    0.0065
    180.00    0.0638    0.0060
    180.00    0.0638    0.0060
