AeroDyn airfoil file Created with QBlade v0.963 64bit on 17.01.2019 at 13:27:41 Compatible with AeroDyn v13.0.
Polar "T1_Re0.075_M0.00_N9.0 360 M" on Foil "T1_Re0.075_M0.00_N9.0" :: generated by QBlade
1              Number of airfoil tables in this file
0              Table ID parameter
-176.00        Stall angle (deg)
0              No longer used, enter zero
0              No longer used, enter zero
0              No longer used, enter zero
-6.26          Angle of attack for zero Cn for linear Cn curve (deg)
-1.10943       Cn slope for zero lift for linear Cn curve (1/rad)
-0.0429        Cn at stall value for positive angle of attack for linear Cn curve
-0.2128        Cn at stall value for negative angle of attack for linear Cn curve
2.80           Angle of attack for minimum CD (deg)
0.0575         Minimum CD value
   -180.00   -0.1524    0.0060
   -179.00    0.6476    0.0065
   -178.00    1.4394    0.0078
   -177.00    2.0546    0.0101
   -176.00    2.0625    0.0132
   -175.00    1.5358    0.0173
   -174.00    1.0093    0.0222
   -173.00    0.6719    0.0280
   -172.00    0.4821    0.0346
   -171.00    0.3800    0.0421
   -170.00    0.3279    0.0505
   -169.00    0.3048    0.0597
   -168.00    0.2991    0.0696
   -167.00    0.3042    0.0804
   -166.00    0.3163    0.0920
   -165.00    0.3330    0.1044
   -164.00    0.3527    0.1174
   -163.00    0.3745    0.1313
   -162.00    0.3976    0.1458
   -161.00    0.4216    0.1610
   -160.00    0.4461    0.1769
   -159.00    0.4708    0.1935
   -158.00    0.4956    0.2107
   -157.00    0.5202    0.2285
   -156.00    0.5446    0.2469
   -155.00    0.5685    0.2658
   -154.00    0.5920    0.2853
   -153.00    0.6149    0.3053
   -152.00    0.6372    0.3258
   -151.00    0.6587    0.3467
   -150.00    0.6794    0.3681
   -149.00    0.6993    0.3899
   -148.00    0.7183    0.4120
   -147.00    0.7363    0.4345
   -146.00    0.7533    0.4574
   -145.00    0.7693    0.4805
   -144.00    0.7841    0.5039
   -143.00    0.7979    0.5275
   -142.00    0.8104    0.5514
   -141.00    0.8218    0.5754
   -140.00    0.8319    0.5996
   -139.00    0.8408    0.6239
   -138.00    0.8484    0.6483
   -137.00    0.8547    0.6727
   -136.00    0.8596    0.6972
   -135.00    0.8632    0.7217
   -134.00    0.8655    0.7461
   -133.00    0.8663    0.7705
   -132.00    0.8658    0.7948
   -131.00    0.8639    0.8190
   -130.00    0.8606    0.8431
   -129.00    0.8559    0.8670
   -128.00    0.8498    0.8907
   -127.00    0.8423    0.9141
   -126.00    0.8335    0.9373
   -125.00    0.8232    0.9602
   -124.00    0.8117    0.9829
   -123.00    0.7987    1.0051
   -122.00    0.7845    1.0270
   -121.00    0.7689    1.0486
   -120.00    0.7521    1.0697
   -119.00    0.7340    1.0904
   -118.00    0.7147    1.1106
   -117.00    0.6942    1.1303
   -116.00    0.6725    1.1495
   -115.00    0.6497    1.1682
   -114.00    0.6259    1.1863
   -113.00    0.6010    1.2039
   -112.00    0.5750    1.2209
   -111.00    0.5482    1.2372
   -110.00    0.5204    1.2530
   -109.00    0.4917    1.2681
   -108.00    0.4619    1.2825
   -107.00    0.4316    1.2962
   -106.00    0.4007    1.3092
   -105.00    0.3691    1.3216
   -104.00    0.3369    1.3332
   -103.00    0.3042    1.3440
   -102.00    0.2709    1.3541
   -101.00    0.2372    1.3634
   -100.00    0.2032    1.3720
    -99.00    0.1688    1.3798
    -98.00    0.1341    1.3867
    -97.00    0.0993    1.3929
    -96.00    0.0643    1.3983
    -95.00    0.0292    1.4028
    -94.00   -0.0059    1.4066
    -93.00   -0.0409    1.4095
    -92.00   -0.0759    1.4115
    -91.00   -0.1107    1.4128
    -90.00   -0.1453    1.4132
    -89.00   -0.1796    1.4128
    -88.00   -0.2137    1.4115
    -87.00   -0.2473    1.4095
    -86.00   -0.2805    1.4066
    -85.00   -0.3132    1.4028
    -84.00   -0.3454    1.3983
    -83.00   -0.3770    1.3929
    -82.00   -0.4080    1.3867
    -81.00   -0.4382    1.3798
    -80.00   -0.4678    1.3720
    -79.00   -0.4966    1.3634
    -78.00   -0.5245    1.3541
    -77.00   -0.5516    1.3440
    -76.00   -0.5778    1.3332
    -75.00   -0.6031    1.3216
    -74.00   -0.6274    1.3092
    -73.00   -0.6507    1.2962
    -72.00   -0.6730    1.2825
    -71.00   -0.6943    1.2681
    -70.00   -0.7144    1.2530
    -69.00   -0.7334    1.2372
    -68.00   -0.7513    1.2209
    -67.00   -0.7681    1.2039
    -66.00   -0.7837    1.1863
    -65.00   -0.7981    1.1682
    -64.00   -0.8113    1.1495
    -63.00   -0.8233    1.1303
    -62.00   -0.8341    1.1106
    -61.00   -0.8437    1.0904
    -60.00   -0.8520    1.0697
    -59.00   -0.8591    1.0486
    -58.00   -0.8650    1.0270
    -57.00   -0.8697    1.0051
    -56.00   -0.8731    0.9829
    -55.00   -0.8753    0.9602
    -54.00   -0.8763    0.9373
    -53.00   -0.8761    0.9141
    -52.00   -0.8748    0.8907
    -51.00   -0.8722    0.8670
    -50.00   -0.8685    0.8431
    -49.00   -0.8637    0.8190
    -48.00   -0.8577    0.7948
    -47.00   -0.8507    0.7705
    -46.00   -0.8425    0.7461
    -45.00   -0.8333    0.7217
    -44.00   -0.8231    0.6972
    -43.00   -0.8119    0.6727
    -42.00   -0.7996    0.6483
    -41.00   -0.7865    0.6239
    -40.00   -0.7724    0.5996
    -39.00   -0.7574    0.5754
    -38.00   -0.7416    0.5514
    -37.00   -0.7249    0.5275
    -36.00   -0.7075    0.5039
    -35.00   -0.6893    0.4805
    -34.00   -0.6704    0.4574
    -33.00   -0.6507    0.4345
    -32.00   -0.6305    0.4120
    -31.00   -0.6096    0.3899
    -30.00   -0.5881    0.3681
    -29.00   -0.5661    0.3467
    -28.00   -0.5436    0.3258
    -27.00   -0.5206    0.3053
    -26.00   -0.4971    0.2853
    -25.00   -0.4733    0.2658
    -24.00   -0.4491    0.2469
    -23.00   -0.4246    0.2285
    -22.00   -0.3998    0.2107
    -21.00   -0.3748    0.1935
    -20.00   -0.3496    0.1769
    -19.00   -0.3242    0.1610
    -18.00   -0.2987    0.1458
    -17.00   -0.2731    0.1313
    -16.00   -0.2475    0.1174
    -15.00   -0.2219    0.1043
    -14.00   -0.1964    0.0920
    -13.00   -0.1711    0.0804
    -12.00   -0.1459    0.0696
    -11.00   -0.1212    0.0596
    -10.00   -0.0507    0.1284
     -9.90   -0.0451    0.1274
     -9.80   -0.0399    0.1265
     -9.70   -0.0352    0.1258
     -9.60   -0.0317    0.1254
     -9.50   -0.0298    0.1257
     -9.40   -0.0310    0.1271
     -9.30   -0.0379    0.1276
     -9.20   -0.0470    0.1280
     -9.10   -0.0582    0.1284
     -9.00   -0.0695    0.1288
     -8.90   -0.0775    0.1289
     -8.80   -0.0837    0.1290
     -8.70   -0.0886    0.1289
     -8.60   -0.0927    0.1288
     -8.50   -0.0962    0.1285
     -8.40   -0.0993    0.1282
     -8.30   -0.1021    0.1278
     -8.20   -0.1045    0.1274
     -8.10   -0.1068    0.1269
     -8.00   -0.1090    0.1263
     -7.90   -0.1112    0.1257
     -7.80   -0.1135    0.1251
     -7.70   -0.1159    0.1244
     -7.60   -0.1184    0.1237
     -7.50   -0.1134    0.1204
     -7.40   -0.1047    0.1169
     -7.30   -0.0927    0.1132
     -7.20   -0.0780    0.1094
     -7.10   -0.0607    0.1055
     -7.00   -0.0485    0.1041
     -6.90   -0.0378    0.1029
     -6.80   -0.0281    0.1018
     -6.70   -0.0193    0.1008
     -6.60   -0.0112    0.0998
     -6.50   -0.0038    0.0990
     -6.40    0.0025    0.0983
     -6.30    0.0045    0.0983
     -6.20    0.0035    0.0984
     -6.10   -0.0009    0.0986
     -6.00   -0.0089    0.0989
     -5.90   -0.0204    0.0991
     -5.80   -0.0325    0.0990
     -5.70   -0.0462    0.0989
     -5.60   -0.0612    0.0990
     -5.50   -0.0768    0.0992
     -5.40   -0.0925    0.0995
     -5.30   -0.1076    0.0998
     -5.20   -0.1214    0.1000
     -5.10   -0.1336    0.1001
     -5.00   -0.1440    0.1001
     -4.90   -0.1526    0.0999
     -4.80   -0.1596    0.0997
     -4.70   -0.1655    0.0994
     -4.60   -0.1708    0.0992
     -4.50   -0.1760    0.0990
     -4.40   -0.1814    0.0990
     -4.30   -0.1870    0.0990
     -4.20   -0.1928    0.0992
     -4.10   -0.1986    0.0994
     -4.00   -0.2039    0.0998
     -3.90   -0.2085    0.1005
     -3.80   -0.2120    0.1014
     -3.70   -0.2151    0.1025
     -3.60   -0.2181    0.1035
     -3.50   -0.2210    0.1045
     -3.40   -0.2242    0.1052
     -3.30   -0.2278    0.1055
     -3.20   -0.2313    0.1056
     -3.10   -0.2344    0.1055
     -3.00   -0.2372    0.1053
     -2.90   -0.2396    0.1051
     -2.80   -0.2415    0.1048
     -2.70   -0.2431    0.1044
     -2.60   -0.2490    0.1025
     -2.50   -0.2594    0.0991
     -2.40   -0.2696    0.0956
     -2.30   -0.2794    0.0921
     -2.20   -0.2888    0.0885
     -2.10   -0.2932    0.0865
     -2.00   -0.2922    0.0859
     -1.90   -0.2908    0.0853
     -1.80   -0.2890    0.0848
     -1.70   -0.2869    0.0843
     -1.60   -0.2843    0.0838
     -1.50   -0.2814    0.0833
     -1.40   -0.2712    0.0831
     -1.30   -0.2609    0.0829
     -1.20   -0.2505    0.0826
     -1.10   -0.2401    0.0822
     -1.00   -0.2298    0.0819
     -0.90   -0.2265    0.0811
     -0.80   -0.2232    0.0805
     -0.70   -0.2198    0.0799
     -0.60   -0.2165    0.0793
     -0.50   -0.2133    0.0788
     -0.40   -0.2103    0.0784
     -0.30   -0.2074    0.0779
     -0.20   -0.2046    0.0776
     -0.10   -0.2019    0.0772
      0.00   -0.1990    0.0768
      0.10   -0.1961    0.0764
      0.20   -0.1932    0.0758
      0.30   -0.1872    0.0726
      0.40   -0.1816    0.0695
      0.50   -0.1764    0.0665
      0.60   -0.1714    0.0637
      0.70   -0.1661    0.0613
      0.80   -0.1635    0.0613
      0.90   -0.1597    0.0611
      1.00   -0.1537    0.0610
      1.10   -0.1450    0.0608
      1.20   -0.1324    0.0607
      1.30   -0.1129    0.0609
      1.40   -0.0897    0.0613
      1.50   -0.0607    0.0614
      1.60   -0.0267    0.0612
      1.70    0.0108    0.0605
      1.80    0.0373    0.0597
      1.90    0.0556    0.0588
      2.00    0.0627    0.0583
      2.10    0.0586    0.0582
      2.20    0.0433    0.0584
      2.30    0.0604    0.0585
      2.40    0.1100    0.0583
      2.50    0.1663    0.0582
      2.60    0.2290    0.0580
      2.70    0.2977    0.0579
      2.80    0.3396    0.0581
      2.90    0.3534    0.0589
      3.00    0.3599    0.0606
      3.10    0.3636    0.0622
      3.20    0.3648    0.0636
      3.30    0.3636    0.0647
      3.40    0.3612    0.0655
      3.50    0.3622    0.0652
      3.60    0.3623    0.0652
      3.70    0.3617    0.0653
      3.80    0.3605    0.0654
      3.90    0.3590    0.0657
      4.00    0.3574    0.0660
      4.10    0.3558    0.0663
      4.20    0.3545    0.0666
      4.30    0.3536    0.0669
      4.40    0.3535    0.0672
      4.50    0.3547    0.0674
      4.60    0.3574    0.0677
      4.70    0.3619    0.0678
      4.80    0.3685    0.0679
      4.90    0.3772    0.0680
      5.00    0.3878    0.0679
      5.10    0.4001    0.0679
      5.20    0.4140    0.0677
      5.30    0.4293    0.0675
      5.40    0.4454    0.0673
      5.50    0.4620    0.0671
      5.60    0.4791    0.0668
      5.70    0.4965    0.0665
      5.80    0.5138    0.0663
      5.90    0.5312    0.0662
      6.00    0.5427    0.0668
      6.10    0.5500    0.0673
      6.20    0.5503    0.0680
      6.30    0.5435    0.0690
      6.40    0.5319    0.0701
      6.50    0.5223    0.0709
      6.60    0.5137    0.0718
      6.70    0.5091    0.0728
      6.80    0.5091    0.0735
      6.90    0.5119    0.0741
      7.00    0.5167    0.0746
      7.10    0.5232    0.0749
      7.20    0.5311    0.0751
      7.30    0.5399    0.0752
      7.40    0.5494    0.0753
      7.50    0.5596    0.0753
      7.60    0.5703    0.0753
      7.70    0.5814    0.0752
      7.80    0.5932    0.0750
      7.90    0.6054    0.0749
      8.00    0.6178    0.0748
      8.10    0.6302    0.0747
      8.20    0.6420    0.0747
      8.30    0.6446    0.0766
      8.40    0.6445    0.0786
      8.50    0.6419    0.0808
      8.60    0.6369    0.0832
      8.70    0.6298    0.0856
      8.80    0.6291    0.0865
      8.90    0.6277    0.0874
      9.00    0.6255    0.0884
      9.10    0.6224    0.0897
      9.20    0.6186    0.0911
      9.30    0.6145    0.0927
      9.40    0.6103    0.0944
      9.50    0.6064    0.0961
      9.60    0.6030    0.0978
      9.70    0.6000    0.0994
      9.80    0.5975    0.1010
      9.90    0.5953    0.1025
     10.00    0.5934    0.1040
     10.10    0.5918    0.1054
     10.20    0.5904    0.1068
     10.30    0.5892    0.1082
     10.40    0.5881    0.1095
     10.50    0.5870    0.1108
     10.60    0.5858    0.1121
     10.70    0.5844    0.1134
     10.80    0.5829    0.1146
     10.90    0.5813    0.1158
     11.00    0.5795    0.1170
     11.10    0.5779    0.1182
     11.20    0.5763    0.1194
     11.30    0.5749    0.1206
     11.40    0.5737    0.1217
     11.50    0.5728    0.1229
     11.60    0.5724    0.1239
     11.70    0.5724    0.1250
     11.80    0.5730    0.1260
     11.90    0.5741    0.1269
     12.00    0.5757    0.1279
     12.10    0.5775    0.1289
     12.20    0.5790    0.1299
     12.30    0.5797    0.1311
     12.40    0.5794    0.1325
     12.50    0.5782    0.1341
     12.60    0.5763    0.1359
     12.70    0.5742    0.1378
     12.80    0.5729    0.1398
     12.90    0.5734    0.1423
     13.00    0.5778    0.1468
     13.10    0.5859    0.1534
     13.20    0.5945    0.1598
     13.30    0.6032    0.1661
     13.40    0.6109    0.1718
     13.50    0.6156    0.1754
     13.60    0.6173    0.1766
     13.70    0.6190    0.1778
     13.80    0.6206    0.1789
     13.90    0.6222    0.1800
     14.00    0.6237    0.1809
     14.10    0.6252    0.1816
     14.20    0.6265    0.1822
     14.30    0.6273    0.1824
     14.40    0.6272    0.1820
     14.50    0.6251    0.1804
     14.60    0.6196    0.1762
     14.70    0.6148    0.1720
     14.80    0.6118    0.1679
     14.90    0.6113    0.1642
     15.00    0.6158    0.1617
     15.10    0.6352    0.1616
     15.20    0.6536    0.1616
     15.30    0.6703    0.1617
     15.40    0.6845    0.1618
     15.50    0.6950    0.1621
     15.60    0.6934    0.1625
     15.70    0.6916    0.1630
     15.80    0.6899    0.1636
     15.90    0.6885    0.1641
     16.00    0.6875    0.1647
     16.10    0.6869    0.1653
     16.20    0.6867    0.1659
     16.30    0.6868    0.1667
     16.40    0.6872    0.1676
     16.50    0.6879    0.1686
     16.60    0.6887    0.1697
     16.70    0.6895    0.1708
     16.80    0.6904    0.1718
     16.90    0.6913    0.1729
     17.00    0.6923    0.1739
     17.10    0.6933    0.1749
     17.20    0.6945    0.1759
     17.30    0.6957    0.1769
     17.40    0.6971    0.1779
     17.50    0.6987    0.1788
     17.60    0.7008    0.1797
     17.70    0.7034    0.1805
     17.80    0.7070    0.1811
     17.90    0.7122    0.1816
     18.00    0.7327    0.1811
     18.10    0.7502    0.1817
     18.20    0.7712    0.1793
     18.30    0.7910    0.1767
     18.40    0.8085    0.1743
     18.50    0.8102    0.1728
     18.60    0.8153    0.1698
     18.70    0.8192    0.1692
     18.80    0.8266    0.1680
     18.90    0.8361    0.1666
     19.00    0.8470    0.1649
     19.10    0.8587    0.1633
     19.20    0.8691    0.1621
     19.30    0.8777    0.1613
     19.40    0.8866    0.1605
     19.50    0.8772    0.1614
     19.60    0.8862    0.1606
     19.70    0.8956    0.1597
     19.80    0.9052    0.1588
     19.90    0.9145    0.1579
     20.00    0.9229    0.1571
     21.00    0.9404    0.1972
     22.00    0.9564    0.2153
     23.00    0.9710    0.2340
     24.00    0.9844    0.2535
     25.00    0.9965    0.2735
     26.00    1.0074    0.2943
     27.00    1.0171    0.3156
     28.00    1.0257    0.3375
     29.00    1.0332    0.3600
     30.00    1.0397    0.3830
     31.00    1.0452    0.4066
     32.00    1.0497    0.4306
     33.00    1.0532    0.4551
     34.00    1.0559    0.4799
     35.00    1.0577    0.5052
     36.00    1.0586    0.5309
     37.00    1.0587    0.5569
     38.00    1.0580    0.5831
     39.00    1.0565    0.6097
     40.00    1.0543    0.6365
     41.00    1.0514    0.6634
     42.00    1.0477    0.6906
     43.00    1.0434    0.7179
     44.00    1.0384    0.7453
     45.00    1.0327    0.7727
     46.00    1.0265    0.8002
     47.00    1.0196    0.8277
     48.00    1.0121    0.8551
     49.00    1.0041    0.8825
     50.00    0.9955    0.9098
     51.00    0.9864    0.9370
     52.00    0.9768    0.9639
     53.00    0.9667    0.9907
     54.00    0.9560    1.0172
     55.00    0.9449    1.0435
     56.00    0.9334    1.0694
     57.00    0.9214    1.0950
     58.00    0.9090    1.1203
     59.00    0.8961    1.1451
     60.00    0.8829    1.1695
     61.00    0.8692    1.1935
     62.00    0.8552    1.2169
     63.00    0.8408    1.2398
     64.00    0.8261    1.2622
     65.00    0.8110    1.2840
     66.00    0.7956    1.3051
     67.00    0.7798    1.3256
     68.00    0.7638    1.3455
     69.00    0.7475    1.3647
     70.00    0.7309    1.3831
     71.00    0.7140    1.4009
     72.00    0.6968    1.4178
     73.00    0.6794    1.4340
     74.00    0.6618    1.4494
     75.00    0.6439    1.4639
     76.00    0.6258    1.4776
     77.00    0.6075    1.4905
     78.00    0.5889    1.5024
     79.00    0.5702    1.5135
     80.00    0.5513    1.5237
     81.00    0.5323    1.5329
     82.00    0.5131    1.5413
     83.00    0.4937    1.5486
     84.00    0.4742    1.5551
     85.00    0.4545    1.5606
     86.00    0.4347    1.5651
     87.00    0.4148    1.5686
     88.00    0.3948    1.5711
     89.00    0.3748    1.5727
     90.00    0.3546    1.5733
     91.00    0.3343    1.5729
     92.00    0.3140    1.5716
     93.00    0.2937    1.5692
     94.00    0.2733    1.5659
     95.00    0.2529    1.5616
     96.00    0.2324    1.5563
     97.00    0.2119    1.5501
     98.00    0.1915    1.5429
     99.00    0.1711    1.5348
    100.00    0.1506    1.5257
    101.00    0.1303    1.5157
    102.00    0.1099    1.5049
    103.00    0.0897    1.4931
    104.00    0.0695    1.4804
    105.00    0.0494    1.4669
    106.00    0.0294    1.4525
    107.00    0.0096    1.4373
    108.00   -0.0101    1.4213
    109.00   -0.0297    1.4046
    110.00   -0.2621    1.3870
    111.00   -0.2790    1.3687
    112.00   -0.2958    1.3497
    113.00   -0.3124    1.3300
    114.00   -0.3288    1.3096
    115.00   -0.3450    1.2886
    116.00   -0.3610    1.2670
    117.00   -0.3767    1.2448
    118.00   -0.3922    1.2220
    119.00   -0.4074    1.1987
    120.00   -0.4222    1.1748
    121.00   -0.4368    1.1505
    122.00   -0.4510    1.1258
    123.00   -0.4649    1.1007
    124.00   -0.4784    1.0752
    125.00   -0.4915    1.0493
    126.00   -0.5042    1.0231
    127.00   -0.5164    0.9967
    128.00   -0.5282    0.9700
    129.00   -0.5395    0.9431
    130.00   -0.5504    0.9160
    131.00   -0.5607    0.8887
    132.00   -0.5705    0.8614
    133.00   -0.5798    0.8339
    134.00   -0.5885    0.8065
    135.00   -0.5966    0.7790
    136.00   -0.6041    0.7515
    137.00   -0.6110    0.7241
    138.00   -0.6173    0.6968
    139.00   -0.6229    0.6697
    140.00   -0.6278    0.6427
    141.00   -0.6321    0.6158
    142.00   -0.6356    0.5892
    143.00   -0.6385    0.5629
    144.00   -0.6406    0.5368
    145.00   -0.6420    0.5111
    146.00   -0.6426    0.4857
    147.00   -0.6425    0.4607
    148.00   -0.6417    0.4362
    149.00   -0.6400    0.4120
    150.00   -0.6376    0.3884
    151.00   -0.6345    0.3652
    152.00   -0.6306    0.3426
    153.00   -0.6259    0.3205
    154.00   -0.6206    0.2990
    155.00   -0.6145    0.2781
    156.00   -0.6078    0.2578
    157.00   -0.6004    0.2382
    158.00   -0.5925    0.2192
    159.00   -0.5841    0.2010
    160.00   -0.5754    0.1834
    161.00   -0.5664    0.1666
    162.00   -0.5574    0.1506
    163.00   -0.5488    0.1353
    164.00   -0.5408    0.1208
    165.00   -0.5341    0.1072
    166.00   -0.5296    0.0943
    167.00   -0.5286    0.0823
    168.00   -0.5332    0.0711
    169.00   -0.5467    0.0608
    170.00   -0.5745    0.0513
    171.00   -0.6263    0.0428
    172.00   -0.7188    0.0351
    173.00   -0.8816    0.0283
    174.00   -1.1620    0.0224
    175.00   -1.6035    0.0174
    176.00   -2.1043    0.0133
    177.00   -2.2279    0.0101
    178.00   -1.7259    0.0078
    179.00   -0.9523    0.0065
    180.00   -0.1524    0.0060
    180.00   -0.1524    0.0060
