AeroDyn airfoil file Created with QBlade v0.963 64bit on 17.01.2019 at 13:27:41 Compatible with AeroDyn v13.0.
Polar "T1_Re0.075_M0.00_N9.0 360 M" on Foil "T1_Re0.075_M0.00_N9.0" :: generated by QBlade
1              Number of airfoil tables in this file
0              Table ID parameter
48.00          Stall angle (deg)
0              No longer used, enter zero
0              No longer used, enter zero
0              No longer used, enter zero
-0.68          Angle of attack for zero Cn for linear Cn curve (deg)
6.99482        Cn slope for zero lift for linear Cn curve (1/rad)
-0.3069        Cn at stall value for positive angle of attack for linear Cn curve
-0.2576        Cn at stall value for negative angle of attack for linear Cn curve
3.20           Angle of attack for minimum CD (deg)
0.0333         Minimum CD value
   -180.00   -0.0171    0.0060
   -179.00    0.1237    0.0065
   -178.00    0.2634    0.0078
   -177.00    0.3937    0.0101
   -176.00    0.4933    0.0132
   -175.00    0.5383    0.0173
   -174.00    0.5281    0.0222
   -173.00    0.4886    0.0280
   -172.00    0.4465    0.0346
   -171.00    0.4147    0.0421
   -170.00    0.3957    0.0505
   -169.00    0.3874    0.0597
   -168.00    0.3873    0.0697
   -167.00    0.3928    0.0805
   -166.00    0.4023    0.0920
   -165.00    0.4143    0.1044
   -164.00    0.4281    0.1175
   -163.00    0.4429    0.1314
   -162.00    0.4584    0.1459
   -161.00    0.4741    0.1612
   -160.00    0.4898    0.1771
   -159.00    0.5053    0.1937
   -158.00    0.5204    0.2109
   -157.00    0.5351    0.2287
   -156.00    0.5493    0.2472
   -155.00    0.5629    0.2661
   -154.00    0.5758    0.2857
   -153.00    0.5880    0.3057
   -152.00    0.5994    0.3262
   -151.00    0.6100    0.3472
   -150.00    0.6199    0.3687
   -149.00    0.6288    0.3905
   -148.00    0.6370    0.4127
   -147.00    0.6443    0.4353
   -146.00    0.6506    0.4582
   -145.00    0.6561    0.4814
   -144.00    0.6607    0.5049
   -143.00    0.6644    0.5286
   -142.00    0.6672    0.5525
   -141.00    0.6691    0.5766
   -140.00    0.6701    0.6009
   -139.00    0.6702    0.6252
   -138.00    0.6694    0.6497
   -137.00    0.6677    0.6743
   -136.00    0.6651    0.6988
   -135.00    0.6617    0.7234
   -134.00    0.6574    0.7480
   -133.00    0.6522    0.7725
   -132.00    0.6462    0.7969
   -131.00    0.6393    0.8212
   -130.00    0.6317    0.8454
   -129.00    0.6232    0.8693
   -128.00    0.6140    0.8931
   -127.00    0.6040    0.9167
   -126.00    0.5932    0.9400
   -125.00    0.5817    0.9631
   -124.00    0.5695    0.9858
   -123.00    0.5566    1.0082
   -122.00    0.5431    1.0302
   -121.00    0.5288    1.0518
   -120.00    0.5140    1.0730
   -119.00    0.4985    1.0938
   -118.00    0.4825    1.1141
   -117.00    0.4659    1.1340
   -116.00    0.4488    1.1533
   -115.00    0.4312    1.1721
   -114.00    0.4130    1.1903
   -113.00    0.3945    1.2080
   -112.00    0.3754    1.2251
   -111.00    0.3560    1.2415
   -110.00    0.3362    1.2573
   -109.00    0.3155    1.2725
   -108.00    0.2950    1.2870
   -107.00    0.2742    1.3008
   -106.00    0.2531    1.3139
   -105.00    0.2318    1.3263
   -104.00    0.2102    1.3380
   -103.00    0.1884    1.3489
   -102.00    0.1665    1.3590
   -101.00    0.1444    1.3684
   -100.00    0.1222    1.3770
    -99.00    0.0999    1.3849
    -98.00    0.0775    1.3919
    -97.00    0.0550    1.3981
    -96.00    0.0326    1.4035
    -95.00    0.0101    1.4081
    -94.00   -0.0123    1.4118
    -93.00   -0.0346    1.4147
    -92.00   -0.0569    1.4168
    -91.00   -0.0791    1.4181
    -90.00   -0.1012    1.4185
    -89.00   -0.1231    1.4181
    -88.00   -0.1448    1.4168
    -87.00   -0.1663    1.4147
    -86.00   -0.1876    1.4118
    -85.00   -0.2087    1.4081
    -84.00   -0.2295    1.4035
    -83.00   -0.2500    1.3981
    -82.00   -0.2703    1.3919
    -81.00   -0.2902    1.3848
    -80.00   -0.3097    1.3770
    -79.00   -0.3289    1.3684
    -78.00   -0.3477    1.3590
    -77.00   -0.3661    1.3489
    -76.00   -0.3840    1.3380
    -75.00   -0.4016    1.3263
    -74.00   -0.4186    1.3139
    -73.00   -0.4352    1.3008
    -72.00   -0.4514    1.2870
    -71.00   -0.4670    1.2725
    -70.00   -0.4821    1.2573
    -69.00   -0.4966    1.2415
    -68.00   -0.5106    1.2250
    -67.00   -0.5241    1.2080
    -66.00   -0.5370    1.1903
    -65.00   -0.5492    1.1721
    -64.00   -0.5609    1.1533
    -63.00   -0.5720    1.1339
    -62.00   -0.5825    1.1141
    -61.00   -0.5923    1.0938
    -60.00   -0.6015    1.0730
    -59.00   -0.6101    1.0518
    -58.00   -0.6180    1.0301
    -57.00   -0.6252    1.0081
    -56.00   -0.6318    0.9857
    -55.00   -0.6377    0.9630
    -54.00   -0.6429    0.9400
    -53.00   -0.6474    0.9166
    -52.00   -0.6512    0.8931
    -51.00   -0.6544    0.8693
    -50.00   -0.6568    0.8453
    -49.00   -0.6585    0.8211
    -48.00   -0.6596    0.7968
    -47.00   -0.6599    0.7724
    -46.00   -0.6595    0.7479
    -45.00   -0.6584    0.7233
    -44.00   -0.6567    0.6987
    -43.00   -0.6542    0.6742
    -42.00   -0.6510    0.6496
    -41.00   -0.6471    0.6251
    -40.00   -0.6425    0.6007
    -39.00   -0.6372    0.5765
    -38.00   -0.6313    0.5524
    -37.00   -0.6246    0.5284
    -36.00   -0.6173    0.5047
    -35.00   -0.6093    0.4812
    -34.00   -0.6006    0.4580
    -33.00   -0.5913    0.4351
    -32.00   -0.5814    0.4125
    -31.00   -0.5708    0.3903
    -30.00   -0.5596    0.3685
    -29.00   -0.5477    0.3470
    -28.00   -0.5353    0.3260
    -27.00   -0.5223    0.3055
    -26.00   -0.5087    0.2854
    -25.00   -0.4945    0.2659
    -24.00   -0.4798    0.2469
    -23.00   -0.4646    0.2285
    -22.00   -0.4489    0.2106
    -21.00   -0.4327    0.1934
    -20.00   -0.4160    0.1768
    -19.00   -0.3989    0.1608
    -18.00   -0.3814    0.1456
    -17.00   -0.3635    0.1310
    -16.00   -0.3453    0.1171
    -15.00   -0.3268    0.1040
    -14.00   -0.3081    0.0916
    -13.00   -0.2891    0.0800
    -12.00   -0.2701    0.0692
    -11.00   -0.2509    0.0592
    -10.00   -0.2875    0.1371
     -9.90   -0.2881    0.1365
     -9.80   -0.2889    0.1360
     -9.70   -0.2899    0.1355
     -9.60   -0.2911    0.1351
     -9.50   -0.2925    0.1346
     -9.40   -0.2982    0.1334
     -9.30   -0.2971    0.1330
     -9.20   -0.2945    0.1326
     -9.10   -0.2908    0.1324
     -9.00   -0.2861    0.1325
     -8.90   -0.2797    0.1329
     -8.80   -0.2748    0.1339
     -8.70   -0.2699    0.1350
     -8.60   -0.2644    0.1360
     -8.50   -0.2581    0.1367
     -8.40   -0.2516    0.1369
     -8.30   -0.2448    0.1367
     -8.20   -0.2375    0.1361
     -8.10   -0.2298    0.1353
     -8.00   -0.2215    0.1344
     -7.90   -0.2170    0.1335
     -7.80   -0.2163    0.1326
     -7.70   -0.2183    0.1318
     -7.60   -0.2227    0.1310
     -7.50   -0.2293    0.1302
     -7.40   -0.2336    0.1293
     -7.30   -0.2354    0.1284
     -7.20   -0.2424    0.1234
     -7.10   -0.2458    0.1182
     -7.00   -0.2453    0.1127
     -6.90   -0.2416    0.1070
     -6.80   -0.2351    0.1011
     -6.70   -0.2198    0.0992
     -6.60   -0.2050    0.0973
     -6.50   -0.1917    0.0955
     -6.40   -0.1799    0.0939
     -6.30   -0.1753    0.0925
     -6.20   -0.1767    0.0915
     -6.10   -0.1822    0.0906
     -6.00   -0.1910    0.0898
     -5.90   -0.2025    0.0891
     -5.80   -0.2105    0.0883
     -5.70   -0.2159    0.0874
     -5.60   -0.2200    0.0863
     -5.50   -0.2234    0.0851
     -5.40   -0.2263    0.0838
     -5.30   -0.2291    0.0824
     -5.20   -0.2325    0.0809
     -5.10   -0.2440    0.0774
     -5.00   -0.2552    0.0734
     -4.90   -0.2697    0.0687
     -4.80   -0.2826    0.0637
     -4.70   -0.2907    0.0589
     -4.60   -0.2864    0.0565
     -4.50   -0.2822    0.0547
     -4.40   -0.2774    0.0540
     -4.30   -0.2764    0.0539
     -4.20   -0.2803    0.0540
     -4.10   -0.2885    0.0540
     -4.00   -0.2962    0.0540
     -3.90   -0.3000    0.0541
     -3.80   -0.3003    0.0540
     -3.70   -0.3001    0.0535
     -3.60   -0.2996    0.0528
     -3.50   -0.2992    0.0519
     -3.40   -0.2988    0.0507
     -3.30   -0.2979    0.0494
     -3.20   -0.2947    0.0483
     -3.10   -0.2898    0.0472
     -3.00   -0.2830    0.0462
     -2.90   -0.2742    0.0452
     -2.80   -0.2635    0.0443
     -2.70   -0.2507    0.0433
     -2.60   -0.2358    0.0425
     -2.50   -0.2189    0.0416
     -2.40   -0.2000    0.0408
     -2.30   -0.1796    0.0401
     -2.20   -0.1576    0.0394
     -2.10   -0.1348    0.0389
     -2.00   -0.1151    0.0387
     -1.90   -0.0988    0.0387
     -1.80   -0.0862    0.0387
     -1.70   -0.0782    0.0389
     -1.60   -0.0746    0.0391
     -1.50   -0.0718    0.0391
     -1.40   -0.0690    0.0392
     -1.30   -0.0646    0.0392
     -1.20   -0.0569    0.0392
     -1.10   -0.0444    0.0391
     -1.00   -0.0258    0.0389
     -0.90    0.0009    0.0385
     -0.80    0.0267    0.0381
     -0.70    0.0489    0.0377
     -0.60    0.0660    0.0375
     -0.50    0.0765    0.0374
     -0.40    0.0775    0.0375
     -0.30    0.0762    0.0377
     -0.20    0.0738    0.0379
     -0.10    0.0799    0.0380
      0.00    0.0923    0.0379
      0.10    0.1086    0.0377
      0.20    0.1296    0.0374
      0.30    0.1566    0.0369
      0.40    0.1808    0.0365
      0.50    0.2030    0.0361
      0.60    0.2236    0.0358
      0.70    0.2377    0.0361
      0.80    0.2461    0.0366
      0.90    0.2547    0.0371
      1.00    0.2608    0.0378
      1.10    0.2656    0.0384
      1.20    0.2734    0.0386
      1.30    0.2820    0.0388
      1.40    0.2851    0.0392
      1.50    0.2868    0.0396
      1.60    0.2883    0.0401
      1.70    0.2899    0.0406
      1.80    0.2918    0.0410
      1.90    0.2956    0.0413
      2.00    0.3290    0.0412
      2.10    0.3671    0.0410
      2.20    0.4407    0.0399
      2.30    0.5177    0.0386
      2.40    0.5970    0.0372
      2.50    0.6513    0.0360
      2.60    0.7048    0.0348
      2.70    0.7282    0.0343
      2.80    0.7542    0.0339
      2.90    0.7706    0.0341
      3.00    0.7757    0.0349
      3.10    0.7751    0.0357
      3.20    0.7665    0.0368
      3.30    0.7495    0.0380
      3.40    0.7351    0.0387
      3.50    0.7246    0.0393
      3.60    0.7114    0.0401
      3.70    0.6966    0.0411
      3.80    0.6815    0.0422
      3.90    0.6664    0.0435
      4.00    0.6523    0.0449
      4.10    0.6404    0.0462
      4.20    0.6311    0.0475
      4.30    0.6240    0.0487
      4.40    0.6195    0.0498
      4.50    0.6175    0.0507
      4.60    0.6181    0.0513
      4.70    0.6211    0.0518
      4.80    0.6262    0.0521
      4.90    0.6333    0.0522
      5.00    0.6424    0.0521
      5.10    0.6534    0.0519
      5.20    0.6660    0.0516
      5.30    0.6799    0.0512
      5.40    0.6945    0.0508
      5.50    0.7086    0.0505
      5.60    0.7202    0.0506
      5.70    0.7072    0.0534
      5.80    0.6893    0.0566
      5.90    0.6667    0.0602
      6.00    0.6399    0.0642
      6.10    0.6105    0.0684
      6.20    0.6002    0.0704
      6.30    0.5896    0.0725
      6.40    0.5791    0.0747
      6.50    0.5690    0.0768
      6.60    0.5598    0.0788
      6.70    0.5516    0.0807
      6.80    0.5444    0.0825
      6.90    0.5378    0.0842
      7.00    0.5320    0.0859
      7.10    0.5267    0.0875
      7.20    0.5219    0.0890
      7.30    0.5176    0.0906
      7.40    0.5138    0.0922
      7.50    0.5105    0.0938
      7.60    0.5077    0.0953
      7.70    0.5053    0.0969
      7.80    0.5034    0.0984
      7.90    0.5019    0.0998
      8.00    0.5007    0.1013
      8.10    0.4998    0.1027
      8.20    0.4992    0.1040
      8.30    0.4988    0.1054
      8.40    0.4986    0.1067
      8.50    0.4984    0.1080
      8.60    0.4983    0.1093
      8.70    0.4982    0.1105
      8.80    0.4981    0.1118
      8.90    0.4980    0.1130
      9.00    0.4979    0.1142
      9.10    0.4978    0.1154
      9.20    0.4977    0.1165
      9.30    0.4975    0.1177
      9.40    0.4971    0.1188
      9.50    0.4966    0.1199
      9.60    0.4960    0.1210
      9.70    0.4952    0.1222
      9.80    0.4942    0.1233
      9.90    0.4932    0.1245
     10.00    0.4921    0.1258
     10.10    0.4911    0.1272
     10.20    0.4903    0.1287
     10.30    0.4904    0.1306
     10.40    0.4955    0.1364
     10.50    0.5011    0.1423
     10.60    0.5071    0.1481
     10.70    0.5134    0.1538
     10.80    0.5194    0.1593
     10.90    0.5209    0.1607
     11.00    0.5224    0.1621
     11.10    0.5241    0.1635
     11.20    0.5258    0.1648
     11.30    0.5275    0.1660
     11.40    0.5294    0.1673
     11.50    0.5313    0.1684
     11.60    0.5332    0.1695
     11.70    0.5351    0.1706
     11.80    0.5371    0.1715
     11.90    0.5391    0.1724
     12.00    0.5412    0.1731
     12.10    0.5432    0.1738
     12.20    0.5453    0.1744
     12.30    0.5472    0.1748
     12.40    0.5489    0.1751
     12.50    0.5502    0.1751
     12.60    0.5509    0.1749
     12.70    0.5504    0.1741
     12.80    0.5463    0.1714
     12.90    0.5421    0.1685
     13.00    0.5382    0.1658
     13.10    0.5351    0.1633
     13.20    0.5334    0.1614
     13.30    0.5356    0.1615
     13.40    0.5388    0.1619
     13.50    0.5423    0.1624
     13.60    0.5463    0.1629
     13.70    0.5505    0.1635
     13.80    0.5549    0.1641
     13.90    0.5597    0.1647
     14.00    0.5647    0.1653
     14.10    0.5700    0.1660
     14.20    0.5756    0.1668
     14.30    0.5814    0.1675
     14.40    0.5876    0.1683
     14.50    0.5941    0.1692
     14.60    0.6010    0.1700
     14.70    0.6082    0.1710
     14.80    0.6158    0.1720
     14.90    0.6238    0.1731
     15.00    0.6322    0.1744
     15.10    0.6411    0.1758
     15.20    0.6505    0.1774
     15.30    0.6604    0.1792
     15.40    0.6710    0.1813
     15.50    0.6821    0.1839
     15.60    0.6844    0.1909
     15.70    0.6849    0.1978
     15.80    0.6835    0.2044
     15.90    0.6798    0.2106
     16.00    0.6741    0.2162
     16.10    0.6755    0.2172
     16.20    0.6770    0.2183
     16.30    0.6785    0.2194
     16.40    0.6800    0.2205
     16.50    0.6816    0.2217
     16.60    0.6832    0.2229
     16.70    0.6849    0.2241
     16.80    0.6865    0.2253
     16.90    0.6882    0.2265
     17.00    0.6899    0.2276
     17.10    0.6915    0.2288
     17.20    0.6932    0.2299
     17.30    0.6948    0.2310
     17.40    0.6965    0.2322
     17.50    0.6981    0.2333
     17.60    0.6996    0.2344
     17.70    0.7012    0.2354
     17.80    0.7027    0.2364
     17.90    0.7042    0.2374
     18.00    0.7056    0.2384
     18.10    0.7071    0.2393
     18.20    0.7085    0.2402
     18.30    0.7099    0.2411
     18.40    0.7115    0.2419
     18.50    0.7129    0.2421
     18.60    0.7139    0.2416
     18.70    0.7143    0.2404
     18.80    0.7142    0.2383
     18.90    0.7130    0.2352
     19.00    0.7265    0.2259
     19.10    0.7400    0.2172
     19.20    0.7538    0.2094
     19.30    0.7679    0.2025
     19.40    0.7828    0.1966
     19.50    0.7823    0.1957
     19.60    0.7822    0.1966
     19.70    0.7827    0.1975
     19.80    0.7839    0.1983
     19.90    0.7858    0.1990
     20.00    0.7886    0.1996
     21.00    0.6948    0.1900
     22.00    0.7017    0.2085
     23.00    0.7094    0.2277
     24.00    0.7176    0.2476
     25.00    0.7262    0.2681
     26.00    0.7352    0.2893
     27.00    0.7444    0.3110
     28.00    0.7538    0.3334
     29.00    0.7632    0.3563
     30.00    0.7726    0.3797
     31.00    0.7819    0.4036
     32.00    0.7911    0.4279
     33.00    0.8000    0.4527
     34.00    0.8085    0.4779
     35.00    0.8168    0.5034
     36.00    0.8246    0.5293
     37.00    0.8320    0.5555
     38.00    0.8389    0.5820
     39.00    0.8452    0.6088
     40.00    0.8510    0.6357
     41.00    0.8561    0.6629
     42.00    0.8606    0.6902
     43.00    0.8644    0.7176
     44.00    0.8675    0.7451
     45.00    0.8699    0.7726
     46.00    0.8716    0.8002
     47.00    0.8724    0.8277
     48.00    0.8725    0.8552
     49.00    0.8718    0.8827
     50.00    0.8702    0.9100
     51.00    0.8678    0.9371
     52.00    0.8645    0.9641
     53.00    0.8604    0.9908
     54.00    0.8554    1.0173
     55.00    0.8496    1.0436
     56.00    0.8428    1.0695
     57.00    0.8352    1.0950
     58.00    0.8267    1.1202
     59.00    0.8173    1.1450
     60.00    0.8070    1.1693
     61.00    0.7958    1.1932
     62.00    0.7837    1.2165
     63.00    0.7708    1.2393
     64.00    0.7570    1.2616
     65.00    0.7423    1.2833
     66.00    0.7268    1.3043
     67.00    0.7104    1.3248
     68.00    0.6932    1.3445
     69.00    0.6752    1.3636
     70.00    0.6564    1.3819
     71.00    0.6369    1.3995
     72.00    0.6165    1.4163
     73.00    0.5954    1.4324
     74.00    0.5736    1.4477
     75.00    0.5511    1.4621
     76.00    0.5279    1.4757
     77.00    0.5041    1.4884
     78.00    0.4796    1.5003
     79.00    0.4545    1.5112
     80.00    0.4289    1.5213
     81.00    0.4027    1.5304
     82.00    0.3760    1.5387
     83.00    0.3488    1.5459
     84.00    0.3211    1.5523
     85.00    0.2931    1.5577
     86.00    0.2646    1.5621
     87.00    0.2358    1.5655
     88.00    0.2067    1.5680
     89.00    0.1773    1.5695
     90.00    0.1477    1.5700
     91.00    0.1178    1.5696
     92.00    0.0878    1.5681
     93.00    0.0577    1.5657
     94.00    0.0275    1.5623
     95.00   -0.0028    1.5580
     96.00   -0.0331    1.5527
     97.00   -0.0634    1.5464
     98.00   -0.0935    1.5392
     99.00   -0.1236    1.5311
    100.00   -0.1535    1.5220
    101.00   -0.1832    1.5120
    102.00   -0.2127    1.5011
    103.00   -0.2419    1.4893
    104.00   -0.2708    1.4767
    105.00   -0.2994    1.4632
    106.00   -0.3275    1.4488
    107.00   -0.3552    1.4337
    108.00   -0.3825    1.4177
    109.00   -0.4092    1.4009
    110.00   -0.4413    1.3834
    111.00   -0.4668    1.3652
    112.00   -0.4917    1.3462
    113.00   -0.5159    1.3265
    114.00   -0.5394    1.3062
    115.00   -0.5622    1.2852
    116.00   -0.5843    1.2637
    117.00   -0.6055    1.2415
    118.00   -0.6260    1.2188
    119.00   -0.6455    1.1955
    120.00   -0.6642    1.1718
    121.00   -0.6821    1.1476
    122.00   -0.6989    1.1229
    123.00   -0.7148    1.0979
    124.00   -0.7298    1.0724
    125.00   -0.7437    1.0466
    126.00   -0.7566    1.0205
    127.00   -0.7685    0.9942
    128.00   -0.7793    0.9676
    129.00   -0.7891    0.9407
    130.00   -0.7977    0.9137
    131.00   -0.8053    0.8866
    132.00   -0.8118    0.8593
    133.00   -0.8171    0.8320
    134.00   -0.8213    0.8046
    135.00   -0.8244    0.7772
    136.00   -0.8264    0.7498
    137.00   -0.8273    0.7225
    138.00   -0.8270    0.6953
    139.00   -0.8256    0.6682
    140.00   -0.8231    0.6413
    141.00   -0.8194    0.6145
    142.00   -0.8147    0.5880
    143.00   -0.8089    0.5617
    144.00   -0.8020    0.5358
    145.00   -0.7940    0.5101
    146.00   -0.7850    0.4848
    147.00   -0.7750    0.4599
    148.00   -0.7640    0.4354
    149.00   -0.7520    0.4113
    150.00   -0.7391    0.3877
    151.00   -0.7253    0.3646
    152.00   -0.7107    0.3420
    153.00   -0.6952    0.3199
    154.00   -0.6789    0.2985
    155.00   -0.6620    0.2776
    156.00   -0.6444    0.2574
    157.00   -0.6262    0.2378
    158.00   -0.6076    0.2189
    159.00   -0.5886    0.2007
    160.00   -0.5694    0.1832
    161.00   -0.5502    0.1664
    162.00   -0.5312    0.1504
    163.00   -0.5127    0.1352
    164.00   -0.4951    0.1207
    165.00   -0.4790    0.1070
    166.00   -0.4652    0.0942
    167.00   -0.4548    0.0822
    168.00   -0.4493    0.0710
    169.00   -0.4509    0.0607
    170.00   -0.4625    0.0513
    171.00   -0.4872    0.0427
    172.00   -0.5262    0.0350
    173.00   -0.5743    0.0282
    174.00   -0.6124    0.0224
    175.00   -0.6097    0.0174
    176.00   -0.5462    0.0133
    177.00   -0.4336    0.0101
    178.00   -0.2984    0.0078
    179.00   -0.1579    0.0065
    180.00   -0.0171    0.0060
    180.00   -0.0171    0.0060
