AeroDyn airfoil file Created with QBlade v0.963 64bit on 17.01.2019 at 13:27:42 Compatible with AeroDyn v13.0.
Polar "T1_Re0.125_M0.00_N9.0 360 M" on Foil "T1_Re0.125_M0.00_N9.0" :: generated by QBlade
1              Number of airfoil tables in this file
0              Table ID parameter
13.20          Stall angle (deg)
0              No longer used, enter zero
0              No longer used, enter zero
0              No longer used, enter zero
-1.03          Angle of attack for zero Cn for linear Cn curve (deg)
4.89818        Cn slope for zero lift for linear Cn curve (1/rad)
-0.3439        Cn at stall value for positive angle of attack for linear Cn curve
-0.5605        Cn at stall value for negative angle of attack for linear Cn curve
6.50           Angle of attack for minimum CD (deg)
0.0199         Minimum CD value
   -180.00   -0.0270    0.0060
   -179.00    0.0513    0.0065
   -178.00    0.1278    0.0078
   -177.00    0.1985    0.0101
   -176.00    0.2565    0.0132
   -175.00    0.2962    0.0173
   -174.00    0.3175    0.0222
   -173.00    0.3259    0.0280
   -172.00    0.3288    0.0347
   -171.00    0.3314    0.0422
   -170.00    0.3363    0.0506
   -169.00    0.3441    0.0599
   -168.00    0.3547    0.0700
   -167.00    0.3675    0.0808
   -166.00    0.3819    0.0925
   -165.00    0.3975    0.1050
   -164.00    0.4138    0.1182
   -163.00    0.4305    0.1322
   -162.00    0.4474    0.1470
   -161.00    0.4642    0.1624
   -160.00    0.4808    0.1786
   -159.00    0.4970    0.1954
   -158.00    0.5128    0.2129
   -157.00    0.5281    0.2310
   -156.00    0.5428    0.2497
   -155.00    0.5568    0.2690
   -154.00    0.5701    0.2889
   -153.00    0.5827    0.3093
   -152.00    0.5945    0.3303
   -151.00    0.6055    0.3517
   -150.00    0.6157    0.3736
   -149.00    0.6250    0.3959
   -148.00    0.6335    0.4186
   -147.00    0.6410    0.4417
   -146.00    0.6477    0.4652
   -145.00    0.6535    0.4889
   -144.00    0.6584    0.5130
   -143.00    0.6624    0.5373
   -142.00    0.6655    0.5619
   -141.00    0.6676    0.5867
   -140.00    0.6689    0.6116
   -139.00    0.6692    0.6367
   -138.00    0.6687    0.6619
   -137.00    0.6672    0.6872
   -136.00    0.6648    0.7125
   -135.00    0.6616    0.7378
   -134.00    0.6575    0.7632
   -133.00    0.6525    0.7885
   -132.00    0.6467    0.8137
   -131.00    0.6400    0.8388
   -130.00    0.6325    0.8638
   -129.00    0.6242    0.8887
   -128.00    0.6151    0.9133
   -127.00    0.6052    0.9377
   -126.00    0.5946    0.9619
   -125.00    0.5832    0.9858
   -124.00    0.5711    1.0094
   -123.00    0.5583    1.0326
   -122.00    0.5448    1.0555
   -121.00    0.5307    1.0779
   -120.00    0.5159    1.1000
   -119.00    0.5005    1.1216
   -118.00    0.4845    1.1428
   -117.00    0.4680    1.1634
   -116.00    0.4509    1.1835
   -115.00    0.4332    1.2031
   -114.00    0.4151    1.2221
   -113.00    0.3965    1.2405
   -112.00    0.3775    1.2583
   -111.00    0.3580    1.2755
   -110.00    0.3375    1.2920
   -109.00    0.3173    1.3078
   -108.00    0.2968    1.3229
   -107.00    0.2760    1.3374
   -106.00    0.2548    1.3511
   -105.00    0.2334    1.3640
   -104.00    0.2118    1.3762
   -103.00    0.1900    1.3876
   -102.00    0.1679    1.3982
   -101.00    0.1458    1.4080
   -100.00    0.1235    1.4170
    -99.00    0.1011    1.4252
    -98.00    0.0786    1.4326
    -97.00    0.0561    1.4391
    -96.00    0.0335    1.4447
    -95.00    0.0110    1.4495
    -94.00   -0.0115    1.4534
    -93.00   -0.0340    1.4565
    -92.00   -0.0564    1.4587
    -91.00   -0.0787    1.4600
    -90.00   -0.1008    1.4604
    -89.00   -0.1228    1.4600
    -88.00   -0.1446    1.4587
    -87.00   -0.1663    1.4565
    -86.00   -0.1877    1.4534
    -85.00   -0.2088    1.4495
    -84.00   -0.2297    1.4447
    -83.00   -0.2503    1.4391
    -82.00   -0.2706    1.4326
    -81.00   -0.2906    1.4252
    -80.00   -0.3102    1.4170
    -79.00   -0.3294    1.4080
    -78.00   -0.3483    1.3982
    -77.00   -0.3667    1.3876
    -76.00   -0.3847    1.3762
    -75.00   -0.4023    1.3640
    -74.00   -0.4194    1.3511
    -73.00   -0.4360    1.3374
    -72.00   -0.4521    1.3229
    -71.00   -0.4677    1.3078
    -70.00   -0.4828    1.2920
    -69.00   -0.4973    1.2755
    -68.00   -0.5113    1.2583
    -67.00   -0.5247    1.2405
    -66.00   -0.5376    1.2221
    -65.00   -0.5498    1.2031
    -64.00   -0.5614    1.1835
    -63.00   -0.5725    1.1634
    -62.00   -0.5828    1.1427
    -61.00   -0.5926    1.1216
    -60.00   -0.6017    1.1000
    -59.00   -0.6101    1.0779
    -58.00   -0.6179    1.0554
    -57.00   -0.6250    1.0326
    -56.00   -0.6314    1.0093
    -55.00   -0.6372    0.9858
    -54.00   -0.6422    0.9619
    -53.00   -0.6466    0.9377
    -52.00   -0.6502    0.9133
    -51.00   -0.6532    0.8886
    -50.00   -0.6554    0.8638
    -49.00   -0.6570    0.8388
    -48.00   -0.6578    0.8137
    -47.00   -0.6579    0.7885
    -46.00   -0.6573    0.7632
    -45.00   -0.6560    0.7378
    -44.00   -0.6539    0.7125
    -43.00   -0.6512    0.6871
    -42.00   -0.6477    0.6618
    -41.00   -0.6436    0.6366
    -40.00   -0.6387    0.6115
    -39.00   -0.6331    0.5866
    -38.00   -0.6269    0.5618
    -37.00   -0.6199    0.5373
    -36.00   -0.6123    0.5129
    -35.00   -0.6040    0.4888
    -34.00   -0.5950    0.4651
    -33.00   -0.5854    0.4416
    -32.00   -0.5751    0.4185
    -31.00   -0.5642    0.3958
    -30.00   -0.5526    0.3734
    -29.00   -0.5405    0.3515
    -28.00   -0.5277    0.3301
    -27.00   -0.5143    0.3092
    -26.00   -0.5004    0.2887
    -25.00   -0.4859    0.2688
    -24.00   -0.4710    0.2495
    -23.00   -0.4555    0.2307
    -22.00   -0.4396    0.2125
    -21.00   -0.4232    0.1950
    -20.00   -0.4065    0.1781
    -19.00   -0.3896    0.1619
    -18.00   -0.3725    0.1463
    -17.00   -0.3555    0.1315
    -16.00   -0.3389    0.1173
    -15.00   -0.3231    0.1037
    -14.00   -0.3090    0.0909
    -13.00   -0.2981    0.0786
    -12.00   -0.2936    0.0668
    -11.00   -0.3014    0.0553
    -10.00   -0.6484    0.0696
     -9.90   -0.6602    0.0676
     -9.80   -0.6688    0.0651
     -9.70   -0.6756    0.0623
     -9.60   -0.6817    0.0592
     -9.50   -0.6925    0.0573
     -9.40   -0.7101    0.0510
     -9.30   -0.7097    0.0493
     -9.20   -0.7059    0.0479
     -9.10   -0.6999    0.0467
     -9.00   -0.6923    0.0456
     -8.90   -0.6834    0.0446
     -8.80   -0.6735    0.0437
     -8.70   -0.6628    0.0427
     -8.60   -0.6515    0.0418
     -8.50   -0.6398    0.0408
     -8.40   -0.6277    0.0398
     -8.30   -0.6154    0.0389
     -8.20   -0.6050    0.0380
     -8.10   -0.5967    0.0372
     -8.00   -0.5900    0.0365
     -7.90   -0.5845    0.0359
     -7.80   -0.5801    0.0353
     -7.70   -0.5746    0.0347
     -7.60   -0.5678    0.0342
     -7.50   -0.5602    0.0336
     -7.40   -0.5519    0.0332
     -7.30   -0.5430    0.0327
     -7.20   -0.5333    0.0323
     -7.10   -0.5230    0.0319
     -7.00   -0.5120    0.0316
     -6.90   -0.5005    0.0312
     -6.80   -0.4885    0.0309
     -6.70   -0.4763    0.0306
     -6.60   -0.4638    0.0304
     -6.50   -0.4514    0.0300
     -6.40   -0.4389    0.0297
     -6.30   -0.4262    0.0293
     -6.20   -0.4130    0.0289
     -6.10   -0.3996    0.0285
     -6.00   -0.3855    0.0281
     -5.90   -0.3712    0.0276
     -5.80   -0.3584    0.0271
     -5.70   -0.3471    0.0265
     -5.60   -0.3365    0.0259
     -5.50   -0.3269    0.0253
     -5.40   -0.3182    0.0249
     -5.30   -0.3096    0.0246
     -5.20   -0.3016    0.0244
     -5.10   -0.2940    0.0245
     -5.00   -0.2864    0.0246
     -4.90   -0.2780    0.0248
     -4.80   -0.2688    0.0251
     -4.70   -0.2584    0.0255
     -4.60   -0.2479    0.0258
     -4.50   -0.2370    0.0262
     -4.40   -0.2272    0.0267
     -4.30   -0.2173    0.0271
     -4.20   -0.2065    0.0276
     -4.10   -0.1958    0.0281
     -4.00   -0.1854    0.0286
     -3.90   -0.1779    0.0290
     -3.80   -0.1722    0.0294
     -3.70   -0.1677    0.0297
     -3.60   -0.1650    0.0300
     -3.50   -0.1641    0.0303
     -3.40   -0.1612    0.0306
     -3.30   -0.1573    0.0310
     -3.20   -0.1523    0.0313
     -3.10   -0.1464    0.0317
     -3.00   -0.1394    0.0320
     -2.90   -0.1311    0.0323
     -2.80   -0.1213    0.0326
     -2.70   -0.1106    0.0329
     -2.60   -0.0995    0.0332
     -2.50   -0.0881    0.0335
     -2.40   -0.0808    0.0338
     -2.30   -0.0767    0.0341
     -2.20   -0.0741    0.0344
     -2.10   -0.0733    0.0346
     -2.00   -0.0740    0.0348
     -1.90   -0.0716    0.0349
     -1.80   -0.0671    0.0351
     -1.70   -0.0618    0.0353
     -1.60   -0.0517    0.0354
     -1.50   -0.0394    0.0355
     -1.40   -0.0253    0.0356
     -1.30   -0.0099    0.0356
     -1.20    0.0056    0.0356
     -1.10    0.0156    0.0356
     -1.00    0.0220    0.0357
     -0.90    0.0276    0.0358
     -0.80    0.0329    0.0358
     -0.70    0.0387    0.0360
     -0.60    0.0472    0.0360
     -0.50    0.0590    0.0360
     -0.40    0.0717    0.0359
     -0.30    0.0848    0.0359
     -0.20    0.0975    0.0358
     -0.10    0.1124    0.0358
      0.00    0.1206    0.0359
      0.10    0.1283    0.0360
      0.20    0.1356    0.0362
      0.30    0.1416    0.0363
      0.40    0.1458    0.0364
      0.50    0.1571    0.0364
      0.60    0.1692    0.0364
      0.70    0.1820    0.0363
      0.80    0.1966    0.0361
      0.90    0.2135    0.0360
      1.00    0.2267    0.0359
      1.10    0.2359    0.0360
      1.20    0.2449    0.0360
      1.30    0.2538    0.0360
      1.40    0.2627    0.0360
      1.50    0.2768    0.0359
      1.60    0.2962    0.0358
      1.70    0.3160    0.0356
      1.80    0.3358    0.0354
      1.90    0.3497    0.0352
      2.00    0.3575    0.0352
      2.10    0.3646    0.0351
      2.20    0.3723    0.0349
      2.30    0.3810    0.0347
      2.40    0.3967    0.0343
      2.50    0.4190    0.0337
      2.60    0.4426    0.0330
      2.70    0.4608    0.0326
      2.80    0.4729    0.0324
      2.90    0.4839    0.0323
      3.00    0.4943    0.0322
      3.10    0.5042    0.0321
      3.20    0.5199    0.0317
      3.30    0.5418    0.0311
      3.40    0.5649    0.0304
      3.50    0.5884    0.0297
      3.60    0.6118    0.0290
      3.70    0.6300    0.0285
      3.80    0.6427    0.0283
      3.90    0.6557    0.0280
      4.00    0.6697    0.0276
      4.10    0.6847    0.0271
      4.20    0.7057    0.0263
      4.30    0.7231    0.0256
      4.40    0.7385    0.0250
      4.50    0.7522    0.0244
      4.60    0.7650    0.0239
      4.70    0.7773    0.0235
      4.80    0.7907    0.0230
      4.90    0.8035    0.0226
      5.00    0.8163    0.0222
      5.10    0.8258    0.0219
      5.20    0.8307    0.0218
      5.30    0.8426    0.0215
      5.40    0.8518    0.0212
      5.50    0.8595    0.0210
      5.60    0.8676    0.0208
      5.70    0.8790    0.0206
      5.80    0.8885    0.0204
      5.90    0.8995    0.0202
      6.00    0.9098    0.0201
      6.10    0.9203    0.0199
      6.20    0.9280    0.0199
      6.30    0.9341    0.0200
      6.40    0.9388    0.0202
      6.50    0.9424    0.0204
      6.60    0.9445    0.0208
      6.70    0.9463    0.0211
      6.80    0.9484    0.0215
      6.90    0.9505    0.0220
      7.00    0.9528    0.0224
      7.10    0.9560    0.0229
      7.20    0.9596    0.0233
      7.30    0.9632    0.0237
      7.40    0.9677    0.0242
      7.50    0.9727    0.0246
      7.60    0.9776    0.0250
      7.70    0.9829    0.0254
      7.80    0.9885    0.0257
      7.90    0.9940    0.0260
      8.00    0.9994    0.0264
      8.10    1.0060    0.0268
      8.20    1.0129    0.0272
      8.30    1.0203    0.0277
      8.40    1.0284    0.0281
      8.50    1.0366    0.0284
      8.60    1.0440    0.0288
      8.70    1.0510    0.0291
      8.80    1.0590    0.0295
      8.90    1.0673    0.0299
      9.00    1.0762    0.0303
      9.10    1.0855    0.0307
      9.20    1.0956    0.0311
      9.30    1.1052    0.0315
      9.40    1.1147    0.0319
      9.50    1.1242    0.0324
      9.60    1.1344    0.0328
      9.70    1.1468    0.0333
      9.80    1.1599    0.0338
      9.90    1.1729    0.0344
     10.00    1.1857    0.0349
     10.10    1.1978    0.0354
     10.20    1.2078    0.0359
     10.30    1.2170    0.0364
     10.40    1.2262    0.0369
     10.50    1.2354    0.0374
     10.60    1.2446    0.0380
     10.70    1.2537    0.0385
     10.80    1.2627    0.0390
     10.90    1.2719    0.0395
     11.00    1.2822    0.0401
     11.10    1.2934    0.0408
     11.20    1.3035    0.0415
     11.30    1.3127    0.0423
     11.40    1.3207    0.0430
     11.50    1.3268    0.0437
     11.60    1.3314    0.0442
     11.70    1.3362    0.0449
     11.80    1.3411    0.0455
     11.90    1.3462    0.0462
     12.00    1.3512    0.0469
     12.10    1.3561    0.0476
     12.20    1.3611    0.0483
     12.30    1.3661    0.0490
     12.40    1.3712    0.0497
     12.50    1.3764    0.0504
     12.60    1.3818    0.0511
     12.70    1.3873    0.0519
     12.80    1.3928    0.0528
     12.90    1.3968    0.0542
     13.00    1.3989    0.0558
     13.10    1.3996    0.0573
     13.20    1.3988    0.0589
     13.30    1.3966    0.0604
     13.40    1.3942    0.0616
     13.50    1.3919    0.0627
     13.60    1.3892    0.0638
     13.70    1.3858    0.0651
     13.80    1.3819    0.0664
     13.90    1.3774    0.0678
     14.00    1.3722    0.0693
     14.10    1.3663    0.0709
     14.20    1.3597    0.0726
     14.30    1.3523    0.0744
     14.40    1.3441    0.0764
     14.50    1.3349    0.0784
     14.60    1.3247    0.0807
     14.70    1.3133    0.0831
     14.80    1.3004    0.0858
     14.90    1.2857    0.0888
     15.00    1.2685    0.0922
     15.10    1.2470    0.0965
     15.20    1.1986    0.1081
     15.30    1.1237    0.1269
     15.40    1.0544    0.1450
     15.50    0.9915    0.1621
     15.60    0.9370    0.1780
     15.70    0.9140    0.1859
     15.80    0.9225    0.1861
     15.90    0.9260    0.1901
     16.00    0.9280    0.1947
     16.10    0.9285    0.1996
     16.20    0.9275    0.2050
     16.30    0.9249    0.2107
     16.40    0.9254    0.2129
     16.50    0.9247    0.2149
     16.60    0.9195    0.2166
     16.70    0.9144    0.2181
     16.80    0.9098    0.2194
     16.90    0.9061    0.2206
     17.00    0.9043    0.2217
     17.10    0.9079    0.2228
     17.20    0.9121    0.2240
     17.30    0.9166    0.2252
     17.40    0.9214    0.2263
     17.50    0.9264    0.2275
     17.60    0.9317    0.2287
     17.70    0.9374    0.2299
     17.80    0.9437    0.2312
     17.90    0.9504    0.2324
     18.00    0.9574    0.2338
     18.10    0.9648    0.2354
     18.20    0.9701    0.2384
     18.30    0.9744    0.2415
     18.40    0.9776    0.2446
     18.50    0.9797    0.2479
     18.60    0.9807    0.2510
     18.70    0.9826    0.2528
     18.80    0.9845    0.2546
     18.90    0.9861    0.2563
     19.00    0.9873    0.2578
     19.10    0.9873    0.2588
     19.20    0.9853    0.2591
     19.30    0.9834    0.2594
     19.40    0.9820    0.2596
     19.50    0.9846    0.2599
     19.60    0.9764    0.2581
     19.70    0.9787    0.2593
     19.80    0.9818    0.2605
     19.90    0.9852    0.2617
     20.00    0.9888    0.2629
     21.00    0.8783    0.1576
     22.00    0.8173    0.1830
     23.00    0.7752    0.2075
     24.00    0.7477    0.2315
     25.00    0.7310    0.2551
     26.00    0.7220    0.2786
     27.00    0.7187    0.3020
     28.00    0.7194    0.3255
     29.00    0.7230    0.3491
     30.00    0.7285    0.3730
     31.00    0.7355    0.3971
     32.00    0.7432    0.4215
     33.00    0.7516    0.4462
     34.00    0.7601    0.4711
     35.00    0.7687    0.4963
     36.00    0.7772    0.5218
     37.00    0.7854    0.5474
     38.00    0.7932    0.5733
     39.00    0.8005    0.5994
     40.00    0.8074    0.6257
     41.00    0.8136    0.6520
     42.00    0.8192    0.6785
     43.00    0.8241    0.7051
     44.00    0.8282    0.7318
     45.00    0.8316    0.7584
     46.00    0.8342    0.7851
     47.00    0.8361    0.8117
     48.00    0.8371    0.8383
     49.00    0.8372    0.8647
     50.00    0.8365    0.8910
     51.00    0.8349    0.9172
     52.00    0.8324    0.9432
     53.00    0.8291    0.9689
     54.00    0.8248    0.9944
     55.00    0.8197    1.0197
     56.00    0.8136    1.0446
     57.00    0.8067    1.0691
     58.00    0.7988    1.0933
     59.00    0.7900    1.1171
     60.00    0.7803    1.1404
     61.00    0.7698    1.1633
     62.00    0.7583    1.1857
     63.00    0.7460    1.2076
     64.00    0.7327    1.2289
     65.00    0.7187    1.2497
     66.00    0.7037    1.2699
     67.00    0.6879    1.2894
     68.00    0.6713    1.3083
     69.00    0.6539    1.3265
     70.00    0.6356    1.3441
     71.00    0.6166    1.3609
     72.00    0.5969    1.3770
     73.00    0.5763    1.3924
     74.00    0.5551    1.4069
     75.00    0.5332    1.4207
     76.00    0.5106    1.4337
     77.00    0.4873    1.4458
     78.00    0.4634    1.4572
     79.00    0.4389    1.4676
     80.00    0.4139    1.4772
     81.00    0.3883    1.4859
     82.00    0.3621    1.4938
     83.00    0.3356    1.5007
     84.00    0.3085    1.5067
     85.00    0.2810    1.5118
     86.00    0.2532    1.5160
     87.00    0.2250    1.5193
     88.00    0.1965    1.5216
     89.00    0.1677    1.5231
     90.00    0.1386    1.5235
     91.00    0.1094    1.5231
     92.00    0.0800    1.5217
     93.00    0.0504    1.5193
     94.00    0.0208    1.5161
     95.00   -0.0090    1.5119
     96.00   -0.0387    1.5068
     97.00   -0.0684    1.5008
     98.00   -0.0980    1.4939
     99.00   -0.1276    1.4861
    100.00   -0.1570    1.4774
    101.00   -0.1862    1.4678
    102.00   -0.2152    1.4573
    103.00   -0.2439    1.4460
    104.00   -0.2724    1.4339
    105.00   -0.3005    1.4209
    106.00   -0.3282    1.4072
    107.00   -0.3555    1.3926
    108.00   -0.3824    1.3773
    109.00   -0.4087    1.3612
    110.00   -0.4356    1.3444
    111.00   -0.4609    1.3269
    112.00   -0.4856    1.3087
    113.00   -0.5096    1.2898
    114.00   -0.5330    1.2703
    115.00   -0.5557    1.2501
    116.00   -0.5776    1.2294
    117.00   -0.5988    1.2081
    118.00   -0.6191    1.1862
    119.00   -0.6387    1.1639
    120.00   -0.6574    1.1410
    121.00   -0.6752    1.1177
    122.00   -0.6921    1.0940
    123.00   -0.7081    1.0699
    124.00   -0.7231    1.0454
    125.00   -0.7371    1.0205
    126.00   -0.7501    0.9953
    127.00   -0.7622    0.9699
    128.00   -0.7731    0.9442
    129.00   -0.7831    0.9183
    130.00   -0.7920    0.8922
    131.00   -0.7997    0.8660
    132.00   -0.8065    0.8397
    133.00   -0.8121    0.8132
    134.00   -0.8166    0.7867
    135.00   -0.8200    0.7602
    136.00   -0.8223    0.7337
    137.00   -0.8235    0.7072
    138.00   -0.8235    0.6808
    139.00   -0.8225    0.6545
    140.00   -0.8204    0.6284
    141.00   -0.8171    0.6024
    142.00   -0.8128    0.5766
    143.00   -0.8074    0.5511
    144.00   -0.8009    0.5258
    145.00   -0.7934    0.5009
    146.00   -0.7848    0.4762
    147.00   -0.7752    0.4519
    148.00   -0.7647    0.4280
    149.00   -0.7531    0.4045
    150.00   -0.7407    0.3815
    151.00   -0.7273    0.3589
    152.00   -0.7131    0.3368
    153.00   -0.6980    0.3152
    154.00   -0.6822    0.2942
    155.00   -0.6656    0.2738
    156.00   -0.6483    0.2540
    157.00   -0.6305    0.2348
    158.00   -0.6121    0.2162
    159.00   -0.5934    0.1983
    160.00   -0.5743    0.1811
    161.00   -0.5551    0.1646
    162.00   -0.5359    0.1488
    163.00   -0.5170    0.1338
    164.00   -0.4986    0.1196
    165.00   -0.4811    0.1061
    166.00   -0.4650    0.0934
    167.00   -0.4509    0.0816
    168.00   -0.4394    0.0705
    169.00   -0.4314    0.0603
    170.00   -0.4272    0.0510
    171.00   -0.4267    0.0425
    172.00   -0.4278    0.0349
    173.00   -0.4253    0.0281
    174.00   -0.4114    0.0223
    175.00   -0.3790    0.0173
    176.00   -0.3264    0.0132
    177.00   -0.2588    0.0101
    178.00   -0.1833    0.0078
    179.00   -0.1054    0.0065
    180.00   -0.0270    0.0060
    180.00   -0.0270    0.0060
