AeroDyn airfoil file Created with QBlade v0.963 64bit on 03.01.2019 at 09:20:32 Compatible with AeroDyn v13.0.
Polar "T1_Re0.125_M0.00_N9.0 360 M" on Foil "T1_Re0.125_M0.00_N9.0" :: generated by QBlade
1              Number of airfoil tables in this file
0              Table ID parameter
17.60          Stall angle (deg)
0              No longer used, enter zero
0              No longer used, enter zero
0              No longer used, enter zero
-1.87          Angle of attack for zero Cn for linear Cn curve (deg)
6.91232        Cn slope for zero lift for linear Cn curve (1/rad)
-0.9730        Cn at stall value for positive angle of attack for linear Cn curve
-0.8478        Cn at stall value for negative angle of attack for linear Cn curve
-0.60          Angle of attack for minimum CD (deg)
0.0165         Minimum CD value
   -180.00   -0.0543    0.0060
   -179.00    0.0392    0.0065
   -178.00    0.1311    0.0080
   -177.00    0.2161    0.0106
   -176.00    0.2845    0.0141
   -175.00    0.3279    0.0187
   -174.00    0.3462    0.0242
   -173.00    0.3486    0.0307
   -172.00    0.3455    0.0382
   -171.00    0.3438    0.0467
   -170.00    0.3462    0.0562
   -169.00    0.3529    0.0665
   -168.00    0.3633    0.0779
   -167.00    0.3764    0.0901
   -166.00    0.3914    0.1032
   -165.00    0.4077    0.1173
   -164.00    0.4248    0.1322
   -163.00    0.4423    0.1479
   -162.00    0.4598    0.1645
   -161.00    0.4771    0.1819
   -160.00    0.4942    0.2000
   -159.00    0.5108    0.2189
   -158.00    0.5268    0.2386
   -157.00    0.5421    0.2590
   -156.00    0.5567    0.2801
   -155.00    0.5706    0.3018
   -154.00    0.5836    0.3242
   -153.00    0.5958    0.3472
   -152.00    0.6071    0.3707
   -151.00    0.6175    0.3949
   -150.00    0.6270    0.4195
   -149.00    0.6355    0.4446
   -148.00    0.6431    0.4702
   -147.00    0.6498    0.4962
   -146.00    0.6555    0.5227
   -145.00    0.6602    0.5494
   -144.00    0.6640    0.5766
   -143.00    0.6669    0.6040
   -142.00    0.6688    0.6316
   -141.00    0.6698    0.6596
   -140.00    0.6698    0.6877
   -139.00    0.6689    0.7159
   -138.00    0.6672    0.7443
   -137.00    0.6645    0.7728
   -136.00    0.6609    0.8014
   -135.00    0.6565    0.8300
   -134.00    0.6512    0.8585
   -133.00    0.6451    0.8871
   -132.00    0.6382    0.9155
   -131.00    0.6305    0.9439
   -130.00    0.6220    0.9720
   -129.00    0.6128    1.0000
   -128.00    0.6028    1.0278
   -127.00    0.5921    1.0554
   -126.00    0.5807    1.0826
   -125.00    0.5686    1.1096
   -124.00    0.5559    1.1362
   -123.00    0.5426    1.1624
   -122.00    0.5286    1.1882
   -121.00    0.5141    1.2136
   -120.00    0.4990    1.2385
   -119.00    0.4834    1.2629
   -118.00    0.4673    1.2867
   -117.00    0.4507    1.3100
   -116.00    0.4337    1.3327
   -115.00    0.4162    1.3548
   -114.00    0.3983    1.3763
   -113.00    0.3800    1.3971
   -112.00    0.3614    1.4172
   -111.00    0.3424    1.4365
   -110.00    0.3225    1.4552
   -109.00    0.3029    1.4730
   -108.00    0.2831    1.4901
   -107.00    0.2630    1.5064
   -106.00    0.2427    1.5219
   -105.00    0.2223    1.5365
   -104.00    0.2016    1.5502
   -103.00    0.1808    1.5631
   -102.00    0.1599    1.5751
   -101.00    0.1388    1.5862
   -100.00    0.1177    1.5964
    -99.00    0.0965    1.6056
    -98.00    0.0753    1.6139
    -97.00    0.0540    1.6212
    -96.00    0.0327    1.6276
    -95.00    0.0115    1.6330
    -94.00   -0.0097    1.6375
    -93.00   -0.0308    1.6409
    -92.00   -0.0519    1.6434
    -91.00   -0.0728    1.6449
    -90.00   -0.0937    1.6454
    -89.00   -0.1144    1.6449
    -88.00   -0.1349    1.6434
    -87.00   -0.1553    1.6409
    -86.00   -0.1754    1.6375
    -85.00   -0.1954    1.6330
    -84.00   -0.2151    1.6276
    -83.00   -0.2346    1.6212
    -82.00   -0.2539    1.6139
    -81.00   -0.2728    1.6056
    -80.00   -0.2915    1.5963
    -79.00   -0.3098    1.5862
    -78.00   -0.3279    1.5751
    -77.00   -0.3455    1.5631
    -76.00   -0.3629    1.5502
    -75.00   -0.3798    1.5364
    -74.00   -0.3964    1.5218
    -73.00   -0.4125    1.5064
    -72.00   -0.4283    1.4901
    -71.00   -0.4436    1.4730
    -70.00   -0.4584    1.4551
    -69.00   -0.4728    1.4365
    -68.00   -0.4868    1.4171
    -67.00   -0.5002    1.3970
    -66.00   -0.5132    1.3762
    -65.00   -0.5256    1.3547
    -64.00   -0.5375    1.3326
    -63.00   -0.5489    1.3099
    -62.00   -0.5597    1.2866
    -61.00   -0.5699    1.2627
    -60.00   -0.5796    1.2383
    -59.00   -0.5887    1.2134
    -58.00   -0.5972    1.1881
    -57.00   -0.6051    1.1623
    -56.00   -0.6124    1.1360
    -55.00   -0.6191    1.1094
    -54.00   -0.6251    1.0825
    -53.00   -0.6305    1.0552
    -52.00   -0.6352    1.0276
    -51.00   -0.6393    0.9998
    -50.00   -0.6427    0.9718
    -49.00   -0.6455    0.9436
    -48.00   -0.6475    0.9152
    -47.00   -0.6489    0.8868
    -46.00   -0.6496    0.8582
    -45.00   -0.6496    0.8296
    -44.00   -0.6489    0.8010
    -43.00   -0.6475    0.7725
    -42.00   -0.6454    0.7439
    -41.00   -0.6426    0.7155
    -40.00   -0.6391    0.6872
    -39.00   -0.6350    0.6590
    -38.00   -0.6301    0.6311
    -37.00   -0.6245    0.6034
    -36.00   -0.6183    0.5759
    -35.00   -0.6113    0.5487
    -34.00   -0.6038    0.5219
    -33.00   -0.5956    0.4954
    -32.00   -0.5867    0.4692
    -31.00   -0.5773    0.4435
    -30.00   -0.5673    0.4183
    -29.00   -0.5568    0.3935
    -28.00   -0.5458    0.3692
    -27.00   -0.5345    0.3455
    -26.00   -0.5228    0.3222
    -25.00   -0.5110    0.2996
    -24.00   -0.4993    0.2775
    -23.00   -0.4877    0.2560
    -22.00   -0.4768    0.2351
    -21.00   -0.4671    0.2147
    -20.00   -0.4591    0.1949
    -19.00   -0.4541    0.1756
    -18.00   -0.4538    0.1567
    -17.00   -0.4606    0.1380
    -16.00   -0.4786    0.1195
    -15.00   -0.5133    0.1008
    -14.00   -0.5719    0.0816
    -13.00   -0.6591    0.0622
    -12.00   -0.7664    0.0435
    -11.00   -0.8582    0.0281
    -10.00   -0.9818    0.0356
     -9.90   -0.9783    0.0352
     -9.80   -0.9751    0.0348
     -9.70   -0.9726    0.0344
     -9.60   -0.9709    0.0340
     -9.50   -0.9699    0.0336
     -9.40   -0.9049    0.0307
     -9.30   -0.8974    0.0304
     -9.20   -0.8889    0.0301
     -9.10   -0.8794    0.0299
     -9.00   -0.8687    0.0296
     -8.90   -0.8567    0.0294
     -8.80   -0.8436    0.0291
     -8.70   -0.8296    0.0289
     -8.60   -0.8149    0.0286
     -8.50   -0.7996    0.0284
     -8.40   -0.7842    0.0281
     -8.30   -0.7686    0.0279
     -8.20   -0.7529    0.0276
     -8.10   -0.7373    0.0274
     -8.00   -0.7218    0.0271
     -7.90   -0.7063    0.0269
     -7.80   -0.6909    0.0267
     -7.70   -0.6756    0.0265
     -7.60   -0.6603    0.0263
     -7.50   -0.6451    0.0260
     -7.40   -0.6300    0.0258
     -7.30   -0.6149    0.0256
     -7.20   -0.5999    0.0254
     -7.10   -0.5849    0.0252
     -7.00   -0.5699    0.0250
     -6.90   -0.5550    0.0249
     -6.80   -0.5401    0.0247
     -6.70   -0.5252    0.0245
     -6.60   -0.5103    0.0243
     -6.50   -0.4955    0.0241
     -6.40   -0.4807    0.0239
     -6.30   -0.4659    0.0238
     -6.20   -0.4511    0.0236
     -6.10   -0.4363    0.0234
     -6.00   -0.4214    0.0232
     -5.90   -0.4065    0.0231
     -5.80   -0.3916    0.0229
     -5.70   -0.3766    0.0227
     -5.60   -0.3617    0.0225
     -5.50   -0.3468    0.0223
     -5.40   -0.3319    0.0221
     -5.30   -0.3171    0.0220
     -5.20   -0.3024    0.0218
     -5.10   -0.2878    0.0216
     -5.00   -0.2733    0.0214
     -4.90   -0.2590    0.0212
     -4.80   -0.2448    0.0210
     -4.70   -0.2308    0.0208
     -4.60   -0.2170    0.0207
     -4.50   -0.2033    0.0205
     -4.40   -0.1898    0.0203
     -4.30   -0.1765    0.0201
     -4.20   -0.1634    0.0199
     -4.10   -0.1504    0.0197
     -4.00   -0.1376    0.0195
     -3.90   -0.1250    0.0193
     -3.80   -0.1125    0.0191
     -3.70   -0.1002    0.0189
     -3.60   -0.0880    0.0188
     -3.50   -0.0759    0.0186
     -3.40   -0.0640    0.0184
     -3.30   -0.0521    0.0183
     -3.20   -0.0404    0.0181
     -3.10   -0.0287    0.0180
     -3.00   -0.0171    0.0178
     -2.90   -0.0056    0.0177
     -2.80    0.0058    0.0176
     -2.70    0.0171    0.0175
     -2.60    0.0284    0.0173
     -2.50    0.0395    0.0172
     -2.40    0.0506    0.0171
     -2.30    0.0617    0.0170
     -2.20    0.0727    0.0169
     -2.10    0.0837    0.0168
     -2.00    0.0946    0.0168
     -1.90    0.1056    0.0167
     -1.80    0.1165    0.0167
     -1.70    0.1274    0.0166
     -1.60    0.1384    0.0166
     -1.50    0.1494    0.0166
     -1.40    0.1605    0.0166
     -1.30    0.1716    0.0166
     -1.20    0.1829    0.0166
     -1.10    0.1942    0.0166
     -1.00    0.2058    0.0166
     -0.90    0.2176    0.0166
     -0.80    0.2297    0.0167
     -0.70    0.2420    0.0167
     -0.60    0.2547    0.0168
     -0.50    0.2678    0.0168
     -0.40    0.2814    0.0169
     -0.30    0.2955    0.0169
     -0.20    0.3101    0.0170
     -0.10    0.3252    0.0171
      0.00    0.3410    0.0172
      0.10    0.3574    0.0173
      0.20    0.3744    0.0174
      0.30    0.3920    0.0175
      0.40    0.4102    0.0175
      0.50    0.4288    0.0176
      0.60    0.4478    0.0177
      0.70    0.4670    0.0178
      0.80    0.4865    0.0179
      0.90    0.5062    0.0179
      1.00    0.5260    0.0180
      1.10    0.5458    0.0180
      1.20    0.5657    0.0181
      1.30    0.5857    0.0181
      1.40    0.6057    0.0182
      1.50    0.6257    0.0182
      1.60    0.6455    0.0183
      1.70    0.6650    0.0183
      1.80    0.6840    0.0183
      1.90    0.7019    0.0183
      2.00    0.7186    0.0183
      2.10    0.7339    0.0183
      2.20    0.7475    0.0183
      2.30    0.7595    0.0183
      2.40    0.7701    0.0183
      2.50    0.7795    0.0183
      2.60    0.7880    0.0183
      2.70    0.7959    0.0184
      2.80    0.8035    0.0184
      2.90    0.8109    0.0184
      3.00    0.8181    0.0185
      3.10    0.8254    0.0185
      3.20    0.8326    0.0186
      3.30    0.8397    0.0186
      3.40    0.8469    0.0187
      3.50    0.8540    0.0187
      3.60    0.8612    0.0188
      3.70    0.8683    0.0189
      3.80    0.8754    0.0189
      3.90    0.8825    0.0190
      4.00    0.8896    0.0191
      4.10    0.8967    0.0192
      4.20    0.9037    0.0192
      4.30    0.9108    0.0193
      4.40    0.9178    0.0194
      4.50    0.9249    0.0195
      4.60    0.9319    0.0196
      4.70    0.9389    0.0197
      4.80    0.9459    0.0198
      4.90    0.9529    0.0199
      5.00    0.9599    0.0200
      5.10    0.9668    0.0201
      5.20    0.9738    0.0202
      5.30    0.9807    0.0203
      5.40    0.9877    0.0204
      5.50    0.9946    0.0205
      5.60    1.0015    0.0206
      5.70    1.0084    0.0207
      5.80    1.0152    0.0208
      5.90    1.0221    0.0209
      6.00    1.0289    0.0210
      6.10    1.0356    0.0211
      6.20    1.0424    0.0212
      6.30    1.0490    0.0213
      6.40    1.0557    0.0214
      6.50    1.0622    0.0215
      6.60    1.0688    0.0217
      6.70    1.0752    0.0218
      6.80    1.0816    0.0219
      6.90    1.0880    0.0220
      7.00    1.0943    0.0222
      7.10    1.1006    0.0223
      7.20    1.1069    0.0224
      7.30    1.1131    0.0225
      7.40    1.1193    0.0226
      7.50    1.1254    0.0228
      7.60    1.1314    0.0229
      7.70    1.1374    0.0230
      7.80    1.1433    0.0232
      7.90    1.1491    0.0233
      8.00    1.1549    0.0235
      8.10    1.1605    0.0236
      8.20    1.1661    0.0238
      8.30    1.1715    0.0239
      8.40    1.1768    0.0241
      8.50    1.1821    0.0242
      8.60    1.1872    0.0244
      8.70    1.1921    0.0246
      8.80    1.1969    0.0248
      8.90    1.2015    0.0250
      9.00    1.2059    0.0252
      9.10    1.2100    0.0254
      9.20    1.2140    0.0256
      9.30    1.2177    0.0258
      9.40    1.2213    0.0260
      9.50    1.2248    0.0263
      9.60    1.2282    0.0265
      9.70    1.2314    0.0268
      9.80    1.2346    0.0270
      9.90    1.2378    0.0273
     10.00    1.2409    0.0275
     10.10    1.2440    0.0278
     10.20    1.2470    0.0281
     10.30    1.2500    0.0284
     10.40    1.2530    0.0288
     10.50    1.2558    0.0291
     10.60    1.2587    0.0295
     10.70    1.2614    0.0298
     10.80    1.2642    0.0302
     10.90    1.2669    0.0306
     11.00    1.2695    0.0310
     11.10    1.2721    0.0314
     11.20    1.2747    0.0318
     11.30    1.2772    0.0323
     11.40    1.2797    0.0327
     11.50    1.2822    0.0332
     11.60    1.2846    0.0337
     11.70    1.2870    0.0342
     11.80    1.2894    0.0347
     11.90    1.2917    0.0352
     12.00    1.2940    0.0357
     12.10    1.2962    0.0363
     12.20    1.2984    0.0368
     12.30    1.3006    0.0374
     12.40    1.3027    0.0379
     12.50    1.3048    0.0385
     12.60    1.3069    0.0391
     12.70    1.3090    0.0397
     12.80    1.3110    0.0403
     12.90    1.3130    0.0410
     13.00    1.3150    0.0416
     13.10    1.3170    0.0423
     13.20    1.3190    0.0429
     13.30    1.3210    0.0436
     13.40    1.3229    0.0443
     13.50    1.3248    0.0450
     13.60    1.3267    0.0457
     13.70    1.3284    0.0464
     13.80    1.3302    0.0471
     13.90    1.3318    0.0479
     14.00    1.3334    0.0486
     14.10    1.3350    0.0494
     14.20    1.3364    0.0501
     14.30    1.3378    0.0509
     14.40    1.3392    0.0517
     14.50    1.3406    0.0526
     14.60    1.3419    0.0534
     14.70    1.3432    0.0543
     14.80    1.3444    0.0551
     14.90    1.3454    0.0560
     15.00    1.3463    0.0568
     15.10    1.3470    0.0577
     15.20    1.3477    0.0587
     15.30    1.3484    0.0596
     15.40    1.3491    0.0605
     15.50    1.3497    0.0615
     15.60    1.3501    0.0624
     15.70    1.3500    0.0634
     15.80    1.3495    0.0644
     15.90    1.3487    0.0654
     16.00    1.3478    0.0666
     16.10    1.3470    0.0678
     16.20    1.3467    0.0690
     16.30    1.3466    0.0702
     16.40    1.3466    0.0713
     16.50    1.3463    0.0724
     16.60    1.3452    0.0734
     16.70    1.3430    0.0745
     16.80    1.3394    0.0758
     16.90    1.3346    0.0772
     17.00    1.3290    0.0788
     17.10    1.3231    0.0806
     17.20    1.3177    0.0826
     17.30    1.3130    0.0846
     17.40    1.3095    0.0865
     17.50    1.3068    0.0883
     17.60    1.3045    0.0900
     17.70    1.3013    0.0914
     17.80    1.2959    0.0928
     17.90    1.2870    0.0943
     18.00    1.2733    0.0961
     18.10    1.2540    0.0987
     18.20    1.2288    0.1023
     18.30    1.2000    0.1071
     18.40    1.1691    0.1132
     18.50    1.1373    0.1208
     18.60    1.1057    0.1297
     18.70    1.0839    0.1372
     18.80    1.0663    0.1444
     18.90    1.0490    0.1518
     19.00    1.0287    0.1600
     19.10    1.0487    0.1560
     19.20    1.0434    0.1587
     19.30    1.0174    0.1668
     19.40    0.9742    0.1795
     19.50    1.1452    0.1304
     19.60    1.0312    0.1632
     19.70    0.9171    0.1959
     19.80    0.8031    0.2287
     19.90    0.8064    0.2299
     20.00    0.8105    0.2310
     21.00    0.7303    0.2107
     22.00    0.7130    0.2347
     23.00    0.7137    0.2577
     24.00    0.7233    0.2806
     25.00    0.7376    0.3037
     26.00    0.7543    0.3272
     27.00    0.7722    0.3512
     28.00    0.7906    0.3756
     29.00    0.8091    0.4006
     30.00    0.8274    0.4260
     31.00    0.8454    0.4520
     32.00    0.8628    0.4784
     33.00    0.8796    0.5052
     34.00    0.8957    0.5325
     35.00    0.9110    0.5601
     36.00    0.9256    0.5881
     37.00    0.9393    0.6164
     38.00    0.9521    0.6450
     39.00    0.9640    0.6739
     40.00    0.9750    0.7030
     41.00    0.9850    0.7323
     42.00    0.9940    0.7617
     43.00    1.0020    0.7912
     44.00    1.0090    0.8208
     45.00    1.0149    0.8505
     46.00    1.0197    0.8802
     47.00    1.0234    0.9098
     48.00    1.0261    0.9394
     49.00    1.0275    0.9689
     50.00    1.0279    0.9982
     51.00    1.0271    1.0274
     52.00    1.0252    1.0564
     53.00    1.0221    1.0851
     54.00    1.0179    1.1135
     55.00    1.0124    1.1416
     56.00    1.0058    1.1694
     57.00    0.9981    1.1968
     58.00    0.9891    1.2238
     59.00    0.9790    1.2503
     60.00    0.9677    1.2764
     61.00    0.9553    1.3019
     62.00    0.9417    1.3269
     63.00    0.9270    1.3513
     64.00    0.9112    1.3751
     65.00    0.8942    1.3983
     66.00    0.8761    1.4208
     67.00    0.8569    1.4426
     68.00    0.8367    1.4637
     69.00    0.8154    1.4840
     70.00    0.7931    1.5036
     71.00    0.7697    1.5224
     72.00    0.7454    1.5404
     73.00    0.7201    1.5575
     74.00    0.6939    1.5737
     75.00    0.6668    1.5891
     76.00    0.6388    1.6036
     77.00    0.6099    1.6171
     78.00    0.5803    1.6298
     79.00    0.5498    1.6414
     80.00    0.5187    1.6521
     81.00    0.4868    1.6619
     82.00    0.4543    1.6706
     83.00    0.4211    1.6783
     84.00    0.3874    1.6851
     85.00    0.3531    1.6908
     86.00    0.3183    1.6954
     87.00    0.2831    1.6991
     88.00    0.2475    1.7017
     89.00    0.2115    1.7033
     90.00    0.1752    1.7038
     91.00    0.1386    1.7033
     92.00    0.1018    1.7017
     93.00    0.0648    1.6991
     94.00    0.0278    1.6954
     95.00   -0.0094    1.6908
     96.00   -0.0465    1.6851
     97.00   -0.0837    1.6784
     98.00   -0.1207    1.6706
     99.00   -0.1576    1.6619
    100.00   -0.1943    1.6522
    101.00   -0.2308    1.6415
    102.00   -0.2670    1.6298
    103.00   -0.3028    1.6172
    104.00   -0.3382    1.6036
    105.00   -0.3732    1.5891
    106.00   -0.4077    1.5737
    107.00   -0.4417    1.5575
    108.00   -0.4750    1.5404
    109.00   -0.5083    1.5224
    110.00   -0.5404    1.5036
    111.00   -0.5717    1.4841
    112.00   -0.6022    1.4637
    113.00   -0.6319    1.4426
    114.00   -0.6608    1.4208
    115.00   -0.6887    1.3983
    116.00   -0.7157    1.3751
    117.00   -0.7417    1.3513
    118.00   -0.7666    1.3269
    119.00   -0.7905    1.3019
    120.00   -0.8133    1.2764
    121.00   -0.8350    1.2504
    122.00   -0.8555    1.2238
    123.00   -0.8748    1.1969
    124.00   -0.8929    1.1695
    125.00   -0.9097    1.1417
    126.00   -0.9253    1.1136
    127.00   -0.9396    1.0851
    128.00   -0.9526    1.0564
    129.00   -0.9642    1.0275
    130.00   -0.9745    0.9983
    131.00   -0.9835    0.9690
    132.00   -0.9911    0.9395
    133.00   -0.9973    0.9099
    134.00   -1.0021    0.8803
    135.00   -1.0056    0.8506
    136.00   -1.0077    0.8210
    137.00   -1.0084    0.7914
    138.00   -1.0077    0.7618
    139.00   -1.0057    0.7324
    140.00   -1.0023    0.7032
    141.00   -0.9976    0.6741
    142.00   -0.9915    0.6453
    143.00   -0.9842    0.6167
    144.00   -0.9755    0.5884
    145.00   -0.9656    0.5605
    146.00   -0.9544    0.5329
    147.00   -0.9420    0.5057
    148.00   -0.9284    0.4789
    149.00   -0.9137    0.4526
    150.00   -0.8979    0.4268
    151.00   -0.8810    0.4015
    152.00   -0.8631    0.3768
    153.00   -0.8442    0.3526
    154.00   -0.8244    0.3291
    155.00   -0.8039    0.3062
    156.00   -0.7825    0.2840
    157.00   -0.7605    0.2625
    158.00   -0.7380    0.2417
    159.00   -0.7151    0.2216
    160.00   -0.6919    0.2024
    161.00   -0.6686    0.1839
    162.00   -0.6455    0.1662
    163.00   -0.6230    0.1494
    164.00   -0.6014    0.1334
    165.00   -0.5813    0.1183
    166.00   -0.5634    0.1041
    167.00   -0.5488    0.0908
    168.00   -0.5387    0.0784
    169.00   -0.5344    0.0670
    170.00   -0.5369    0.0565
    171.00   -0.5458    0.0469
    172.00   -0.5567    0.0384
    173.00   -0.5598    0.0308
    174.00   -0.5417    0.0243
    175.00   -0.4944    0.0187
    176.00   -0.4216    0.0141
    177.00   -0.3341    0.0106
    178.00   -0.2415    0.0080
    179.00   -0.1479    0.0065
    180.00   -0.0543    0.0060
    180.00   -0.0543    0.0060
