AeroDyn airfoil file Created with QBlade v0.963 64bit on 03.01.2019 at 09:20:32 Compatible with AeroDyn v13.0.
Polar "T1_Re0.100_M0.00_N9.0 360 M" on Foil "T1_Re0.100_M0.00_N9.0" :: generated by QBlade
1              Number of airfoil tables in this file
0              Table ID parameter
16.00          Stall angle (deg)
0              No longer used, enter zero
0              No longer used, enter zero
0              No longer used, enter zero
-1.53          Angle of attack for zero Cn for linear Cn curve (deg)
7.95777        Cn slope for zero lift for linear Cn curve (1/rad)
1.1445         Cn at stall value for positive angle of attack for linear Cn curve
-0.8087        Cn at stall value for negative angle of attack for linear Cn curve
-1.00          Angle of attack for minimum CD (deg)
0.0205         Minimum CD value
   -180.00   -0.0470    0.0060
   -179.00    0.0754    0.0065
   -178.00    0.1967    0.0080
   -177.00    0.3103    0.0106
   -176.00    0.4001    0.0141
   -175.00    0.4486    0.0187
   -174.00    0.4542    0.0242
   -173.00    0.4344    0.0307
   -172.00    0.4094    0.0382
   -171.00    0.3906    0.0467
   -170.00    0.3808    0.0562
   -169.00    0.3794    0.0665
   -168.00    0.3843    0.0779
   -167.00    0.3938    0.0901
   -166.00    0.4065    0.1032
   -165.00    0.4212    0.1173
   -164.00    0.4372    0.1322
   -163.00    0.4540    0.1479
   -162.00    0.4711    0.1645
   -161.00    0.4883    0.1818
   -160.00    0.5052    0.2000
   -159.00    0.5218    0.2189
   -158.00    0.5379    0.2386
   -157.00    0.5534    0.2590
   -156.00    0.5682    0.2801
   -155.00    0.5823    0.3018
   -154.00    0.5955    0.3242
   -153.00    0.6080    0.3471
   -152.00    0.6195    0.3707
   -151.00    0.6302    0.3948
   -150.00    0.6400    0.4195
   -149.00    0.6488    0.4446
   -148.00    0.6567    0.4702
   -147.00    0.6636    0.4962
   -146.00    0.6696    0.5226
   -145.00    0.6746    0.5494
   -144.00    0.6787    0.5765
   -143.00    0.6817    0.6039
   -142.00    0.6839    0.6316
   -141.00    0.6851    0.6595
   -140.00    0.6853    0.6876
   -139.00    0.6846    0.7158
   -138.00    0.6830    0.7442
   -137.00    0.6805    0.7727
   -136.00    0.6771    0.8013
   -135.00    0.6728    0.8298
   -134.00    0.6676    0.8584
   -133.00    0.6615    0.8869
   -132.00    0.6546    0.9154
   -131.00    0.6469    0.9437
   -130.00    0.6384    0.9719
   -129.00    0.6291    0.9999
   -128.00    0.6191    1.0277
   -127.00    0.6083    1.0552
   -126.00    0.5968    1.0824
   -125.00    0.5845    1.1094
   -124.00    0.5717    1.1360
   -123.00    0.5581    1.1622
   -122.00    0.5439    1.1880
   -121.00    0.5291    1.2133
   -120.00    0.5138    1.2382
   -119.00    0.4978    1.2626
   -118.00    0.4814    1.2864
   -117.00    0.4644    1.3097
   -116.00    0.4470    1.3324
   -115.00    0.4290    1.3545
   -114.00    0.4107    1.3759
   -113.00    0.3919    1.3966
   -112.00    0.3728    1.4167
   -111.00    0.3533    1.4361
   -110.00    0.3334    1.4547
   -109.00    0.3068    1.4725
   -108.00    0.2862    1.4896
   -107.00    0.2654    1.5059
   -106.00    0.2443    1.5213
   -105.00    0.2230    1.5359
   -104.00    0.2015    1.5496
   -103.00    0.1798    1.5625
   -102.00    0.1580    1.5744
   -101.00    0.1360    1.5855
   -100.00    0.1140    1.5956
    -99.00    0.0918    1.6048
    -98.00    0.0697    1.6131
    -97.00    0.0474    1.6204
    -96.00    0.0252    1.6267
    -95.00    0.0030    1.6321
    -94.00   -0.0192    1.6365
    -93.00   -0.0413    1.6399
    -92.00   -0.0634    1.6423
    -91.00   -0.0854    1.6438
    -90.00   -0.1072    1.6442
    -89.00   -0.1290    1.6437
    -88.00   -0.1505    1.6421
    -87.00   -0.1719    1.6396
    -86.00   -0.1932    1.6361
    -85.00   -0.2142    1.6316
    -84.00   -0.2350    1.6261
    -83.00   -0.2555    1.6197
    -82.00   -0.2758    1.6122
    -81.00   -0.2958    1.6039
    -80.00   -0.3155    1.5946
    -79.00   -0.3349    1.5843
    -78.00   -0.3540    1.5732
    -77.00   -0.3727    1.5611
    -76.00   -0.3910    1.5481
    -75.00   -0.4090    1.5343
    -74.00   -0.4267    1.5196
    -73.00   -0.4439    1.5040
    -72.00   -0.4607    1.4876
    -71.00   -0.4770    1.4704
    -70.00   -0.4929    1.4524
    -69.00   -0.5084    1.4337
    -68.00   -0.5234    1.4142
    -67.00   -0.5380    1.3940
    -66.00   -0.5520    1.3731
    -65.00   -0.5656    1.3515
    -64.00   -0.5786    1.3293
    -63.00   -0.5911    1.3064
    -62.00   -0.6031    1.2829
    -61.00   -0.6146    1.2589
    -60.00   -0.6256    1.2344
    -59.00   -0.6359    1.2093
    -58.00   -0.6458    1.1838
    -57.00   -0.6551    1.1578
    -56.00   -0.6638    1.1313
    -55.00   -0.6720    1.1045
    -54.00   -0.6796    1.0774
    -53.00   -0.6866    1.0499
    -52.00   -0.6931    1.0221
    -51.00   -0.6990    0.9941
    -50.00   -0.7044    0.9658
    -49.00   -0.7092    0.9373
    -48.00   -0.7135    0.9087
    -47.00   -0.7172    0.8799
    -46.00   -0.7204    0.8511
    -45.00   -0.7232    0.8222
    -44.00   -0.7254    0.7932
    -43.00   -0.7271    0.7643
    -42.00   -0.7284    0.7354
    -41.00   -0.7292    0.7066
    -40.00   -0.7297    0.6779
    -39.00   -0.7297    0.6493
    -38.00   -0.7295    0.6209
    -37.00   -0.7289    0.5927
    -36.00   -0.7282    0.5648
    -35.00   -0.7272    0.5371
    -34.00   -0.7261    0.5097
    -33.00   -0.7250    0.4827
    -32.00   -0.7239    0.4560
    -31.00   -0.7229    0.4297
    -30.00   -0.7221    0.4038
    -29.00   -0.7217    0.3784
    -28.00   -0.7217    0.3534
    -27.00   -0.7222    0.3290
    -26.00   -0.7236    0.3051
    -25.00   -0.7258    0.2818
    -24.00   -0.7290    0.2591
    -23.00   -0.7335    0.2370
    -22.00   -0.7393    0.2156
    -21.00   -0.7467    0.1949
    -20.00   -0.7558    0.1750
    -19.00   -0.7665    0.1559
    -18.00   -0.7789    0.1376
    -17.00   -0.7926    0.1203
    -16.00   -0.8074    0.1040
    -15.00   -0.8223    0.0888
    -14.00   -0.8362    0.0748
    -13.00   -0.8474    0.0621
    -12.00   -0.8536    0.0508
    -11.00   -0.8520    0.0411
    -10.00   -0.9501    0.0420
     -9.90   -0.9477    0.0415
     -9.80   -0.9453    0.0409
     -9.70   -0.9429    0.0404
     -9.60   -0.9405    0.0398
     -9.50   -0.9381    0.0393
     -9.40   -0.8962    0.0350
     -9.30   -0.8911    0.0347
     -9.20   -0.8858    0.0343
     -9.10   -0.8804    0.0339
     -9.00   -0.8747    0.0335
     -8.90   -0.8689    0.0332
     -8.80   -0.8628    0.0328
     -8.70   -0.8565    0.0325
     -8.60   -0.8500    0.0322
     -8.50   -0.8431    0.0319
     -8.40   -0.8359    0.0316
     -8.30   -0.8279    0.0314
     -8.20   -0.8192    0.0311
     -8.10   -0.8094    0.0308
     -8.00   -0.7984    0.0305
     -7.90   -0.7862    0.0303
     -7.80   -0.7728    0.0300
     -7.70   -0.7584    0.0298
     -7.60   -0.7432    0.0296
     -7.50   -0.7274    0.0294
     -7.40   -0.7112    0.0292
     -7.30   -0.6949    0.0290
     -7.20   -0.6785    0.0288
     -7.10   -0.6621    0.0286
     -7.00   -0.6458    0.0284
     -6.90   -0.6296    0.0282
     -6.80   -0.6135    0.0280
     -6.70   -0.5974    0.0278
     -6.60   -0.5814    0.0277
     -6.50   -0.5655    0.0275
     -6.40   -0.5498    0.0273
     -6.30   -0.5341    0.0272
     -6.20   -0.5186    0.0270
     -6.10   -0.5034    0.0268
     -6.00   -0.4883    0.0266
     -5.90   -0.4736    0.0265
     -5.80   -0.4590    0.0263
     -5.70   -0.4447    0.0262
     -5.60   -0.4305    0.0260
     -5.50   -0.4164    0.0258
     -5.40   -0.4023    0.0257
     -5.30   -0.3882    0.0255
     -5.20   -0.3741    0.0254
     -5.10   -0.3599    0.0252
     -5.00   -0.3455    0.0251
     -4.90   -0.3310    0.0249
     -4.80   -0.3164    0.0248
     -4.70   -0.3016    0.0246
     -4.60   -0.2868    0.0245
     -4.50   -0.2719    0.0243
     -4.40   -0.2570    0.0241
     -4.30   -0.2422    0.0239
     -4.20   -0.2275    0.0238
     -4.10   -0.2129    0.0236
     -4.00   -0.1984    0.0234
     -3.90   -0.1841    0.0233
     -3.80   -0.1700    0.0231
     -3.70   -0.1559    0.0229
     -3.60   -0.1420    0.0228
     -3.50   -0.1282    0.0226
     -3.40   -0.1144    0.0225
     -3.30   -0.1008    0.0223
     -3.20   -0.0873    0.0221
     -3.10   -0.0739    0.0220
     -3.00   -0.0607    0.0218
     -2.90   -0.0476    0.0217
     -2.80   -0.0346    0.0215
     -2.70   -0.0218    0.0214
     -2.60   -0.0091    0.0213
     -2.50    0.0035    0.0212
     -2.40    0.0160    0.0211
     -2.30    0.0284    0.0210
     -2.20    0.0408    0.0209
     -2.10    0.0531    0.0208
     -2.00    0.0653    0.0207
     -1.90    0.0773    0.0207
     -1.80    0.0893    0.0206
     -1.70    0.1013    0.0206
     -1.60    0.1132    0.0206
     -1.50    0.1253    0.0206
     -1.40    0.1376    0.0206
     -1.30    0.1503    0.0206
     -1.20    0.1635    0.0206
     -1.10    0.1775    0.0206
     -1.00    0.1922    0.0207
     -0.90    0.2079    0.0207
     -0.80    0.2243    0.0207
     -0.70    0.2415    0.0207
     -0.60    0.2593    0.0208
     -0.50    0.2775    0.0208
     -0.40    0.2962    0.0209
     -0.30    0.3153    0.0209
     -0.20    0.3347    0.0209
     -0.10    0.3545    0.0210
      0.00    0.3748    0.0210
      0.10    0.3955    0.0211
      0.20    0.4166    0.0211
      0.30    0.4380    0.0211
      0.40    0.4597    0.0211
      0.50    0.4814    0.0211
      0.60    0.5029    0.0211
      0.70    0.5240    0.0211
      0.80    0.5446    0.0211
      0.90    0.5643    0.0211
      1.00    0.5831    0.0211
      1.10    0.6010    0.0211
      1.20    0.6179    0.0211
      1.30    0.6340    0.0211
      1.40    0.6493    0.0210
      1.50    0.6640    0.0210
      1.60    0.6781    0.0209
      1.70    0.6916    0.0209
      1.80    0.7044    0.0209
      1.90    0.7163    0.0208
      2.00    0.7274    0.0208
      2.10    0.7375    0.0208
      2.20    0.7467    0.0208
      2.30    0.7551    0.0208
      2.40    0.7630    0.0208
      2.50    0.7704    0.0209
      2.60    0.7775    0.0209
      2.70    0.7844    0.0210
      2.80    0.7913    0.0211
      2.90    0.7981    0.0211
      3.00    0.8049    0.0212
      3.10    0.8117    0.0212
      3.20    0.8184    0.0213
      3.30    0.8252    0.0214
      3.40    0.8319    0.0215
      3.50    0.8387    0.0216
      3.60    0.8455    0.0217
      3.70    0.8524    0.0217
      3.80    0.8592    0.0218
      3.90    0.8661    0.0219
      4.00    0.8731    0.0220
      4.10    0.8801    0.0221
      4.20    0.8872    0.0222
      4.30    0.8944    0.0223
      4.40    0.9015    0.0224
      4.50    0.9088    0.0225
      4.60    0.9160    0.0226
      4.70    0.9233    0.0227
      4.80    0.9307    0.0229
      4.90    0.9380    0.0230
      5.00    0.9455    0.0231
      5.10    0.9530    0.0232
      5.20    0.9605    0.0233
      5.30    0.9681    0.0234
      5.40    0.9757    0.0235
      5.50    0.9834    0.0236
      5.60    0.9909    0.0237
      5.70    0.9985    0.0239
      5.80    1.0059    0.0240
      5.90    1.0131    0.0241
      6.00    1.0202    0.0242
      6.10    1.0272    0.0243
      6.20    1.0339    0.0244
      6.30    1.0406    0.0245
      6.40    1.0471    0.0247
      6.50    1.0536    0.0248
      6.60    1.0600    0.0250
      6.70    1.0664    0.0251
      6.80    1.0729    0.0252
      6.90    1.0794    0.0254
      7.00    1.0860    0.0255
      7.10    1.0926    0.0257
      7.20    1.0994    0.0258
      7.30    1.1062    0.0259
      7.40    1.1130    0.0261
      7.50    1.1199    0.0262
      7.60    1.1268    0.0264
      7.70    1.1336    0.0265
      7.80    1.1405    0.0266
      7.90    1.1473    0.0268
      8.00    1.1540    0.0269
      8.10    1.1608    0.0271
      8.20    1.1674    0.0272
      8.30    1.1740    0.0274
      8.40    1.1806    0.0275
      8.50    1.1870    0.0277
      8.60    1.1933    0.0279
      8.70    1.1995    0.0280
      8.80    1.2053    0.0282
      8.90    1.2109    0.0284
      9.00    1.2161    0.0286
      9.10    1.2210    0.0288
      9.20    1.2255    0.0290
      9.30    1.2297    0.0292
      9.40    1.2336    0.0294
      9.50    1.2374    0.0297
      9.60    1.2409    0.0299
      9.70    1.2444    0.0302
      9.80    1.2477    0.0305
      9.90    1.2510    0.0307
     10.00    1.2541    0.0310
     10.10    1.2572    0.0313
     10.20    1.2601    0.0316
     10.30    1.2630    0.0319
     10.40    1.2658    0.0322
     10.50    1.2686    0.0326
     10.60    1.2713    0.0329
     10.70    1.2740    0.0333
     10.80    1.2766    0.0337
     10.90    1.2793    0.0340
     11.00    1.2820    0.0344
     11.10    1.2846    0.0348
     11.20    1.2873    0.0352
     11.30    1.2899    0.0356
     11.40    1.2926    0.0360
     11.50    1.2952    0.0365
     11.60    1.2979    0.0369
     11.70    1.3005    0.0374
     11.80    1.3032    0.0379
     11.90    1.3059    0.0383
     12.00    1.3086    0.0388
     12.10    1.3114    0.0393
     12.20    1.3141    0.0398
     12.30    1.3169    0.0403
     12.40    1.3197    0.0409
     12.50    1.3224    0.0414
     12.60    1.3250    0.0420
     12.70    1.3274    0.0426
     12.80    1.3295    0.0431
     12.90    1.3314    0.0437
     13.00    1.3329    0.0444
     13.10    1.3340    0.0450
     13.20    1.3348    0.0457
     13.30    1.3353    0.0465
     13.40    1.3355    0.0472
     13.50    1.3357    0.0480
     13.60    1.3357    0.0488
     13.70    1.3359    0.0496
     13.80    1.3361    0.0505
     13.90    1.3366    0.0513
     14.00    1.3373    0.0522
     14.10    1.3383    0.0530
     14.20    1.3395    0.0539
     14.30    1.3408    0.0547
     14.40    1.3423    0.0555
     14.50    1.3438    0.0564
     14.60    1.3452    0.0572
     14.70    1.3463    0.0580
     14.80    1.3470    0.0589
     14.90    1.3471    0.0598
     15.00    1.3467    0.0607
     15.10    1.3455    0.0617
     15.20    1.3438    0.0627
     15.30    1.3414    0.0639
     15.40    1.3386    0.0651
     15.50    1.3354    0.0664
     15.60    1.3319    0.0677
     15.70    1.3281    0.0690
     15.80    1.3239    0.0704
     15.90    1.3193    0.0719
     16.00    1.3143    0.0734
     16.10    1.3089    0.0749
     16.20    1.3030    0.0766
     16.30    1.2966    0.0783
     16.40    1.2895    0.0801
     16.50    1.2812    0.0820
     16.60    1.2713    0.0840
     16.70    1.2590    0.0862
     16.80    1.2434    0.0888
     16.90    1.2237    0.0919
     17.00    1.1994    0.0960
     17.10    1.1702    0.1012
     17.20    1.1365    0.1077
     17.30    1.0990    0.1156
     17.40    1.0588    0.1249
     17.50    1.0174    0.1353
     17.60    0.9764    0.1465
     17.70    0.9375    0.1582
     17.80    0.9023    0.1698
     17.90    0.8722    0.1809
     18.00    0.8478    0.1912
     18.10    0.8295    0.2003
     18.20    0.8170    0.2080
     18.30    0.8094    0.2142
     18.40    0.8056    0.2189
     18.50    0.8044    0.2224
     18.60    0.8047    0.2248
     18.70    0.8055    0.2264
     18.80    0.8064    0.2274
     18.90    0.8072    0.2281
     19.00    0.8081    0.2287
     19.10    0.8075    0.2286
     19.20    0.8077    0.2288
     19.30    0.8087    0.2292
     19.40    0.8102    0.2298
     19.50    0.8041    0.2276
     19.60    0.8082    0.2291
     19.70    0.8123    0.2305
     19.80    0.8164    0.2319
     19.90    0.8205    0.2333
     20.00    0.8246    0.2347
     21.00    0.7890    0.2085
     22.00    0.7708    0.2312
     23.00    0.7640    0.2540
     24.00    0.7649    0.2770
     25.00    0.7710    0.3004
     26.00    0.7805    0.3242
     27.00    0.7923    0.3484
     28.00    0.8056    0.3732
     29.00    0.8197    0.3984
     30.00    0.8344    0.4241
     31.00    0.8492    0.4502
     32.00    0.8640    0.4768
     33.00    0.8786    0.5038
     34.00    0.8927    0.5312
     35.00    0.9064    0.5589
     36.00    0.9195    0.5870
     37.00    0.9319    0.6155
     38.00    0.9436    0.6442
     39.00    0.9546    0.6731
     40.00    0.9646    0.7022
     41.00    0.9739    0.7316
     42.00    0.9822    0.7610
     43.00    0.9895    0.7906
     44.00    0.9959    0.8203
     45.00    1.0013    0.8500
     46.00    1.0057    0.8797
     47.00    1.0090    0.9094
     48.00    1.0113    0.9390
     49.00    1.0125    0.9685
     50.00    1.0126    0.9979
     51.00    1.0116    1.0271
     52.00    1.0095    1.0560
     53.00    1.0062    1.0848
     54.00    1.0019    1.1132
     55.00    0.9964    1.1414
     56.00    0.9897    1.1692
     57.00    0.9819    1.1966
     58.00    0.9730    1.2236
     59.00    0.9629    1.2501
     60.00    0.9517    1.2762
     61.00    0.9394    1.3017
     62.00    0.9259    1.3267
     63.00    0.9114    1.3511
     64.00    0.8957    1.3750
     65.00    0.8789    1.3981
     66.00    0.8611    1.4206
     67.00    0.8422    1.4425
     68.00    0.8222    1.4636
     69.00    0.8012    1.4839
     70.00    0.7792    1.5035
     71.00    0.7562    1.5223
     72.00    0.7323    1.5403
     73.00    0.7074    1.5574
     74.00    0.6816    1.5736
     75.00    0.6549    1.5890
     76.00    0.6273    1.6035
     77.00    0.5990    1.6171
     78.00    0.5698    1.6297
     79.00    0.5399    1.6414
     80.00    0.5092    1.6521
     81.00    0.4779    1.6618
     82.00    0.4459    1.6706
     83.00    0.4133    1.6783
     84.00    0.3802    1.6850
     85.00    0.3465    1.6907
     86.00    0.3123    1.6954
     87.00    0.2777    1.6990
     88.00    0.2427    1.7016
     89.00    0.2073    1.7032
     90.00    0.1716    1.7037
     91.00    0.1357    1.7032
     92.00    0.0995    1.7017
     93.00    0.0632    1.6991
     94.00    0.0268    1.6954
     95.00   -0.0097    1.6907
     96.00   -0.0462    1.6850
     97.00   -0.0827    1.6783
     98.00   -0.1191    1.6706
     99.00   -0.1553    1.6619
    100.00   -0.1914    1.6521
    101.00   -0.2272    1.6414
    102.00   -0.2628    1.6298
    103.00   -0.2980    1.6171
    104.00   -0.3328    1.6036
    105.00   -0.3672    1.5891
    106.00   -0.4011    1.5737
    107.00   -0.4345    1.5575
    108.00   -0.4673    1.5403
    109.00   -0.5001    1.5224
    110.00   -0.5316    1.5036
    111.00   -0.5624    1.4840
    112.00   -0.5924    1.4637
    113.00   -0.6216    1.4426
    114.00   -0.6500    1.4208
    115.00   -0.6774    1.3983
    116.00   -0.7040    1.3751
    117.00   -0.7295    1.3513
    118.00   -0.7541    1.3269
    119.00   -0.7776    1.3019
    120.00   -0.8000    1.2764
    121.00   -0.8213    1.2503
    122.00   -0.8415    1.2238
    123.00   -0.8605    1.1968
    124.00   -0.8783    1.1695
    125.00   -0.8949    1.1417
    126.00   -0.9103    1.1136
    127.00   -0.9243    1.0851
    128.00   -0.9371    1.0564
    129.00   -0.9486    1.0275
    130.00   -0.9588    0.9983
    131.00   -0.9676    0.9690
    132.00   -0.9751    0.9395
    133.00   -0.9813    0.9099
    134.00   -0.9861    0.8803
    135.00   -0.9895    0.8506
    136.00   -0.9916    0.8210
    137.00   -0.9924    0.7914
    138.00   -0.9917    0.7618
    139.00   -0.9898    0.7324
    140.00   -0.9865    0.7032
    141.00   -0.9818    0.6741
    142.00   -0.9759    0.6453
    143.00   -0.9687    0.6167
    144.00   -0.9601    0.5884
    145.00   -0.9504    0.5605
    146.00   -0.9394    0.5329
    147.00   -0.9272    0.5057
    148.00   -0.9138    0.4789
    149.00   -0.8993    0.4526
    150.00   -0.8837    0.4268
    151.00   -0.8671    0.4015
    152.00   -0.8494    0.3768
    153.00   -0.8308    0.3526
    154.00   -0.8113    0.3291
    155.00   -0.7910    0.3062
    156.00   -0.7700    0.2840
    157.00   -0.7483    0.2625
    158.00   -0.7261    0.2417
    159.00   -0.7034    0.2216
    160.00   -0.6806    0.2024
    161.00   -0.6577    0.1839
    162.00   -0.6351    0.1662
    163.00   -0.6131    0.1494
    164.00   -0.5921    0.1334
    165.00   -0.5729    0.1183
    166.00   -0.5564    0.1041
    167.00   -0.5438    0.0908
    168.00   -0.5369    0.0784
    169.00   -0.5380    0.0670
    170.00   -0.5497    0.0565
    171.00   -0.5737    0.0469
    172.00   -0.6078    0.0384
    173.00   -0.6401    0.0308
    174.00   -0.6476    0.0243
    175.00   -0.6091    0.0187
    176.00   -0.5246    0.0141
    177.00   -0.4128    0.0106
    178.00   -0.2917    0.0080
    179.00   -0.1694    0.0065
    180.00   -0.0470    0.0060
    180.00   -0.0470    0.0060
