AeroDyn airfoil file Created with QBlade v0.963 64bit on 03.01.2019 at 09:20:32 Compatible with AeroDyn v13.0.
Polar "T1_Re0.100_M0.00_N9.0 360 M" on Foil "T1_Re0.100_M0.00_N9.0" :: generated by QBlade
1              Number of airfoil tables in this file
0              Table ID parameter
13.30          Stall angle (deg)
0              No longer used, enter zero
0              No longer used, enter zero
0              No longer used, enter zero
1.69           Angle of attack for zero Cn for linear Cn curve (deg)
6.28379        Cn slope for zero lift for linear Cn curve (1/rad)
-1.0855        Cn at stall value for positive angle of attack for linear Cn curve
-1.0383        Cn at stall value for negative angle of attack for linear Cn curve
8.10           Angle of attack for minimum CD (deg)
0.0216         Minimum CD value
   -180.00    0.0493    0.0060
   -179.00    0.1509    0.0065
   -178.00    0.2525    0.0080
   -177.00    0.3532    0.0106
   -176.00    0.4479    0.0141
   -175.00    0.5250    0.0187
   -174.00    0.5708    0.0242
   -173.00    0.5816    0.0307
   -172.00    0.5690    0.0382
   -171.00    0.5495    0.0467
   -170.00    0.5343    0.0561
   -169.00    0.5274    0.0665
   -168.00    0.5287    0.0778
   -167.00    0.5366    0.0900
   -166.00    0.5494    0.1031
   -165.00    0.5656    0.1171
   -164.00    0.5843    0.1320
   -163.00    0.6044    0.1477
   -162.00    0.6255    0.1642
   -161.00    0.6471    0.1816
   -160.00    0.6689    0.1997
   -159.00    0.6906    0.2186
   -158.00    0.7121    0.2382
   -157.00    0.7331    0.2585
   -156.00    0.7535    0.2795
   -155.00    0.7733    0.3012
   -154.00    0.7923    0.3235
   -153.00    0.8105    0.3464
   -152.00    0.8278    0.3699
   -151.00    0.8441    0.3939
   -150.00    0.8595    0.4185
   -149.00    0.8738    0.4435
   -148.00    0.8870    0.4690
   -147.00    0.8992    0.4949
   -146.00    0.9102    0.5212
   -145.00    0.9200    0.5479
   -144.00    0.9286    0.5749
   -143.00    0.9360    0.6022
   -142.00    0.9422    0.6298
   -141.00    0.9472    0.6575
   -140.00    0.9508    0.6855
   -139.00    0.9532    0.7137
   -138.00    0.9544    0.7419
   -137.00    0.9542    0.7703
   -136.00    0.9528    0.7987
   -135.00    0.9501    0.8271
   -134.00    0.9461    0.8555
   -133.00    0.9408    0.8839
   -132.00    0.9342    0.9122
   -131.00    0.9264    0.9404
   -130.00    0.9173    0.9684
   -129.00    0.9069    0.9962
   -128.00    0.8954    1.0238
   -127.00    0.8826    1.0512
   -126.00    0.8686    1.0783
   -125.00    0.8535    1.1051
   -124.00    0.8371    1.1315
   -123.00    0.8197    1.1576
   -122.00    0.8011    1.1832
   -121.00    0.7815    1.2084
   -120.00    0.7608    1.2331
   -119.00    0.7391    1.2573
   -118.00    0.7164    1.2810
   -117.00    0.6928    1.3041
   -116.00    0.6682    1.3267
   -115.00    0.6427    1.3486
   -114.00    0.6164    1.3699
   -113.00    0.5892    1.3905
   -112.00    0.5613    1.4105
   -111.00    0.5327    1.4297
   -110.00    0.5033    1.4482
   -109.00    0.4734    1.4659
   -108.00    0.4345    1.4828
   -107.00    0.4032    1.4990
   -106.00    0.3713    1.5143
   -105.00    0.3390    1.5288
   -104.00    0.3062    1.5424
   -103.00    0.2729    1.5551
   -102.00    0.2394    1.5670
   -101.00    0.2055    1.5780
   -100.00    0.1714    1.5880
    -99.00    0.1371    1.5971
    -98.00    0.1026    1.6053
    -97.00    0.0679    1.6125
    -96.00    0.0332    1.6188
    -95.00   -0.0015    1.6241
    -94.00   -0.0362    1.6285
    -93.00   -0.0709    1.6318
    -92.00   -0.1055    1.6342
    -91.00   -0.1399    1.6356
    -90.00   -0.1742    1.6361
    -89.00   -0.2082    1.6355
    -88.00   -0.2419    1.6339
    -87.00   -0.2753    1.6314
    -86.00   -0.3084    1.6279
    -85.00   -0.3411    1.6234
    -84.00   -0.3733    1.6179
    -83.00   -0.4051    1.6115
    -82.00   -0.4364    1.6041
    -81.00   -0.4671    1.5958
    -80.00   -0.4973    1.5865
    -79.00   -0.5268    1.5763
    -78.00   -0.5557    1.5652
    -77.00   -0.5840    1.5531
    -76.00   -0.6115    1.5402
    -75.00   -0.6383    1.5264
    -74.00   -0.6643    1.5118
    -73.00   -0.6896    1.4963
    -72.00   -0.7141    1.4800
    -71.00   -0.7377    1.4628
    -70.00   -0.7605    1.4449
    -69.00   -0.7824    1.4263
    -68.00   -0.8034    1.4068
    -67.00   -0.8235    1.3867
    -66.00   -0.8427    1.3659
    -65.00   -0.8609    1.3443
    -64.00   -0.8782    1.3222
    -63.00   -0.8946    1.2994
    -62.00   -0.9100    1.2760
    -61.00   -0.9244    1.2521
    -60.00   -0.9378    1.2276
    -59.00   -0.9503    1.2026
    -58.00   -0.9618    1.1771
    -57.00   -0.9723    1.1512
    -56.00   -0.9818    1.1249
    -55.00   -0.9904    1.0981
    -54.00   -0.9980    1.0710
    -53.00   -1.0047    1.0436
    -52.00   -1.0104    1.0158
    -51.00   -1.0152    0.9878
    -50.00   -1.0191    0.9596
    -49.00   -1.0222    0.9312
    -48.00   -1.0243    0.9026
    -47.00   -1.0256    0.8738
    -46.00   -1.0261    0.8450
    -45.00   -1.0258    0.8161
    -44.00   -1.0248    0.7871
    -43.00   -1.0231    0.7582
    -42.00   -1.0207    0.7293
    -41.00   -1.0177    0.7004
    -40.00   -1.0141    0.6717
    -39.00   -1.0100    0.6430
    -38.00   -1.0055    0.6145
    -37.00   -1.0006    0.5863
    -36.00   -0.9955    0.5582
    -35.00   -0.9901    0.5304
    -34.00   -0.9846    0.5029
    -33.00   -0.9790    0.4757
    -32.00   -0.9736    0.4488
    -31.00   -0.9684    0.4224
    -30.00   -0.9636    0.3963
    -29.00   -0.9592    0.3707
    -28.00   -0.9555    0.3455
    -27.00   -0.9527    0.3209
    -26.00   -0.9508    0.2968
    -25.00   -0.9502    0.2733
    -24.00   -0.9509    0.2504
    -23.00   -0.9532    0.2281
    -22.00   -0.9572    0.2066
    -21.00   -0.9631    0.1858
    -20.00   -0.9709    0.1658
    -19.00   -0.9807    0.1467
    -18.00   -0.9921    0.1285
    -17.00   -1.0050    0.1114
    -16.00   -1.0186    0.0955
    -15.00   -1.0321    0.0807
    -14.00   -1.0440    0.0674
    -13.00   -1.0525    0.0555
    -12.00   -1.0556    0.0452
    -11.00   -1.0506    0.0365
    -10.00   -1.0954    0.0385
     -9.90   -1.0929    0.0381
     -9.80   -1.0904    0.0377
     -9.70   -1.0877    0.0373
     -9.60   -1.0843    0.0369
     -9.50   -1.0802    0.0367
     -9.40   -1.0652    0.0348
     -9.30   -1.0588    0.0346
     -9.20   -1.0523    0.0344
     -9.10   -1.0459    0.0343
     -9.00   -1.0396    0.0340
     -8.90   -1.0333    0.0338
     -8.80   -1.0271    0.0335
     -8.70   -1.0209    0.0332
     -8.60   -1.0144    0.0329
     -8.50   -1.0080    0.0324
     -8.40   -1.0014    0.0320
     -8.30   -0.9945    0.0316
     -8.20   -0.9875    0.0312
     -8.10   -0.9803    0.0310
     -8.00   -0.9727    0.0308
     -7.90   -0.9651    0.0308
     -7.80   -0.9574    0.0307
     -7.70   -0.9496    0.0306
     -7.60   -0.9417    0.0305
     -7.50   -0.9336    0.0303
     -7.40   -0.9257    0.0300
     -7.30   -0.9179    0.0297
     -7.20   -0.9100    0.0295
     -7.10   -0.9022    0.0292
     -7.00   -0.8944    0.0289
     -6.90   -0.8864    0.0288
     -6.80   -0.8782    0.0288
     -6.70   -0.8699    0.0287
     -6.60   -0.8615    0.0286
     -6.50   -0.8528    0.0285
     -6.40   -0.8440    0.0284
     -6.30   -0.8354    0.0282
     -6.20   -0.8269    0.0280
     -6.10   -0.8187    0.0279
     -6.00   -0.8106    0.0278
     -5.90   -0.8026    0.0277
     -5.80   -0.7945    0.0277
     -5.70   -0.7861    0.0277
     -5.60   -0.7775    0.0277
     -5.50   -0.7687    0.0276
     -5.40   -0.7595    0.0276
     -5.30   -0.7504    0.0274
     -5.20   -0.7414    0.0273
     -5.10   -0.7328    0.0272
     -5.00   -0.7244    0.0271
     -4.90   -0.7164    0.0270
     -4.80   -0.7084    0.0270
     -4.70   -0.7002    0.0271
     -4.60   -0.6918    0.0272
     -4.50   -0.6832    0.0272
     -4.40   -0.6741    0.0273
     -4.30   -0.6650    0.0272
     -4.20   -0.6562    0.0272
     -4.10   -0.6477    0.0272
     -4.00   -0.6395    0.0272
     -3.90   -0.6318    0.0272
     -3.80   -0.6242    0.0273
     -3.70   -0.6163    0.0274
     -3.60   -0.6082    0.0275
     -3.50   -0.5997    0.0276
     -3.40   -0.5907    0.0277
     -3.30   -0.5815    0.0277
     -3.20   -0.5726    0.0278
     -3.10   -0.5642    0.0278
     -3.00   -0.5563    0.0279
     -2.90   -0.5490    0.0280
     -2.80   -0.5418    0.0282
     -2.70   -0.5322    0.0285
     -2.60   -0.5085    0.0293
     -2.50   -0.4834    0.0300
     -2.40   -0.4570    0.0306
     -2.30   -0.4301    0.0313
     -2.20   -0.4044    0.0319
     -2.10   -0.3907    0.0322
     -2.00   -0.3779    0.0326
     -1.90   -0.3668    0.0329
     -1.80   -0.3565    0.0333
     -1.70   -0.3471    0.0336
     -1.60   -0.3382    0.0337
     -1.50   -0.3280    0.0339
     -1.40   -0.3145    0.0342
     -1.30   -0.2988    0.0344
     -1.20   -0.2814    0.0348
     -1.10   -0.2680    0.0350
     -1.00   -0.2566    0.0352
     -0.90   -0.2477    0.0353
     -0.80   -0.2406    0.0355
     -0.70   -0.2348    0.0355
     -0.60   -0.2249    0.0357
     -0.50   -0.2132    0.0360
     -0.40   -0.1997    0.0363
     -0.30   -0.1840    0.0367
     -0.20   -0.1659    0.0371
     -0.10   -0.1532    0.0373
      0.00   -0.1429    0.0374
      0.10   -0.1349    0.0375
      0.20   -0.1290    0.0374
      0.30   -0.1255    0.0374
      0.40   -0.1166    0.0375
      0.50   -0.1052    0.0377
      0.60   -0.0919    0.0379
      0.70   -0.0770    0.0382
      0.80   -0.0605    0.0385
      0.90   -0.0472    0.0387
      1.00   -0.0375    0.0388
      1.10   -0.0287    0.0390
      1.20   -0.0214    0.0390
      1.30   -0.0164    0.0389
      1.40   -0.0086    0.0389
      1.50    0.0022    0.0389
      1.60    0.0136    0.0390
      1.70    0.0262    0.0390
      1.80    0.0405    0.0391
      1.90    0.0562    0.0393
      2.00    0.0735    0.0395
      2.10    0.0815    0.0396
      2.20    0.0884    0.0397
      2.30    0.0949    0.0397
      2.40    0.1015    0.0398
      2.50    0.1064    0.0397
      2.60    0.1201    0.0396
      2.70    0.1343    0.0395
      2.80    0.1483    0.0394
      2.90    0.1618    0.0392
      3.00    0.1762    0.0391
      3.10    0.1920    0.0391
      3.20    0.1985    0.0392
      3.30    0.2040    0.0392
      3.40    0.2090    0.0393
      3.50    0.2141    0.0394
      3.60    0.2194    0.0394
      3.70    0.2353    0.0393
      3.80    0.2522    0.0391
      3.90    0.2692    0.0388
      4.00    0.2859    0.0384
      4.10    0.3020    0.0380
      4.20    0.3179    0.0376
      4.30    0.3301    0.0374
      4.40    0.3383    0.0373
      4.50    0.3425    0.0373
      4.60    0.3466    0.0373
      4.70    0.3508    0.0373
      4.80    0.3602    0.0372
      4.90    0.3750    0.0370
      5.00    0.3943    0.0365
      5.10    0.4138    0.0359
      5.20    0.4331    0.0352
      5.30    0.4522    0.0345
      5.40    0.4708    0.0337
      5.50    0.4849    0.0331
      5.60    0.4944    0.0328
      5.70    0.4992    0.0327
      5.80    0.5038    0.0327
      5.90    0.5085    0.0326
      6.00    0.5186    0.0322
      6.10    0.5343    0.0316
      6.20    0.5556    0.0307
      6.30    0.5781    0.0297
      6.40    0.6025    0.0286
      6.50    0.6159    0.0280
      6.60    0.6265    0.0275
      6.70    0.6366    0.0271
      6.80    0.6465    0.0267
      6.90    0.6562    0.0264
      7.00    0.6814    0.0254
      7.10    0.7036    0.0245
      7.20    0.7216    0.0239
      7.30    0.7376    0.0234
      7.40    0.7555    0.0228
      7.50    0.7641    0.0226
      7.60    0.7745    0.0224
      7.70    0.7892    0.0220
      7.80    0.8025    0.0218
      7.90    0.8093    0.0218
      8.00    0.8196    0.0218
      8.10    0.8304    0.0218
      8.20    0.8386    0.0219
      8.30    0.8476    0.0220
      8.40    0.8566    0.0222
      8.50    0.8638    0.0225
      8.60    0.8707    0.0227
      8.70    0.8771    0.0230
      8.80    0.8820    0.0233
      8.90    0.8874    0.0237
      9.00    0.8923    0.0240
      9.10    0.8971    0.0244
      9.20    0.9017    0.0248
      9.30    0.9067    0.0253
      9.40    0.9111    0.0258
      9.50    0.9154    0.0263
      9.60    0.9200    0.0268
      9.70    0.9246    0.0273
      9.80    0.9289    0.0279
      9.90    0.9332    0.0285
     10.00    0.9383    0.0291
     10.10    0.9433    0.0297
     10.20    0.9483    0.0303
     10.30    0.9534    0.0309
     10.40    0.9599    0.0316
     10.50    0.9661    0.0323
     10.60    0.9723    0.0329
     10.70    0.9786    0.0336
     10.80    0.9852    0.0343
     10.90    0.9927    0.0350
     11.00    0.9998    0.0358
     11.10    1.0066    0.0366
     11.20    1.0132    0.0373
     11.30    1.0192    0.0380
     11.40    1.0228    0.0386
     11.50    1.0284    0.0394
     11.60    1.0342    0.0402
     11.70    1.0404    0.0411
     11.80    1.0472    0.0419
     11.90    1.0546    0.0428
     12.00    1.0603    0.0435
     12.10    1.0660    0.0443
     12.20    1.0715    0.0451
     12.30    1.0767    0.0459
     12.40    1.0817    0.0467
     12.50    1.0868    0.0477
     12.60    1.0916    0.0490
     12.70    1.0962    0.0506
     12.80    1.1000    0.0524
     12.90    1.1029    0.0541
     13.00    1.1045    0.0558
     13.10    1.1051    0.0573
     13.20    1.1045    0.0585
     13.30    1.1032    0.0599
     13.40    1.1012    0.0613
     13.50    1.0984    0.0628
     13.60    1.0949    0.0643
     13.70    1.0907    0.0659
     13.80    1.0858    0.0676
     13.90    1.0802    0.0694
     14.00    1.0740    0.0713
     14.10    1.0672    0.0732
     14.20    1.0597    0.0753
     14.30    1.0517    0.0774
     14.40    1.0430    0.0797
     14.50    1.0337    0.0821
     14.60    1.0237    0.0846
     14.70    1.0131    0.0873
     14.80    1.0019    0.0901
     14.90    0.9898    0.0931
     15.00    0.9770    0.0964
     15.10    0.9633    0.0999
     15.20    0.9484    0.1038
     15.30    0.9322    0.1081
     15.40    0.9145    0.1130
     15.50    0.8952    0.1185
     15.60    0.8769    0.1241
     15.70    0.8598    0.1299
     15.80    0.8459    0.1352
     15.90    0.8354    0.1402
     16.00    0.8167    0.1487
     16.10    0.8005    0.1567
     16.20    0.7872    0.1643
     16.30    0.7751    0.1749
     16.40    0.7641    0.1851
     16.50    0.7660    0.1908
     16.60    0.7680    0.1963
     16.70    0.7696    0.2017
     16.80    0.7708    0.2036
     16.90    0.7719    0.2054
     17.00    0.7721    0.2068
     17.10    0.7700    0.2075
     17.20    0.7671    0.2081
     17.30    0.7641    0.2087
     17.40    0.7614    0.2094
     17.50    0.7596    0.2104
     17.60    0.7604    0.2119
     17.70    0.7624    0.2136
     17.80    0.7649    0.2153
     17.90    0.7679    0.2169
     18.00    0.7715    0.2185
     18.10    0.7760    0.2200
     18.20    0.7818    0.2215
     18.30    0.7895    0.2231
     18.40    0.7984    0.2249
     18.50    0.8059    0.2287
     18.60    0.8124    0.2327
     18.70    0.8173    0.2368
     18.80    0.8199    0.2408
     18.90    0.8209    0.2447
     19.00    0.8225    0.2468
     19.10    0.8242    0.2487
     19.20    0.8258    0.2506
     19.30    0.8273    0.2524
     19.40    0.8287    0.2541
     19.50    0.8274    0.2525
     19.60    0.8288    0.2542
     19.70    0.8302    0.2558
     19.80    0.8314    0.2572
     19.90    0.8313    0.2582
     20.00    0.8300    0.2588
     21.00    0.7888    0.1878
     22.00    0.7639    0.2110
     23.00    0.7445    0.2346
     24.00    0.7297    0.2588
     25.00    0.7189    0.2833
     26.00    0.7113    0.3083
     27.00    0.7063    0.3338
     28.00    0.7034    0.3596
     29.00    0.7022    0.3859
     30.00    0.7022    0.4126
     31.00    0.7033    0.4397
     32.00    0.7050    0.4671
     33.00    0.7073    0.4950
     34.00    0.7098    0.5231
     35.00    0.7125    0.5516
     36.00    0.7153    0.5804
     37.00    0.7179    0.6094
     38.00    0.7203    0.6387
     39.00    0.7225    0.6682
     40.00    0.7244    0.6979
     41.00    0.7259    0.7277
     42.00    0.7269    0.7577
     43.00    0.7275    0.7878
     44.00    0.7275    0.8179
     45.00    0.7270    0.8480
     46.00    0.7260    0.8781
     47.00    0.7243    0.9082
     48.00    0.7221    0.9381
     49.00    0.7192    0.9680
     50.00    0.7157    0.9977
     51.00    0.7116    1.0273
     52.00    0.7069    1.0566
     53.00    0.7015    1.0856
     54.00    0.6954    1.1144
     55.00    0.6887    1.1428
     56.00    0.6813    1.1709
     57.00    0.6733    1.1986
     58.00    0.6647    1.2259
     59.00    0.6554    1.2527
     60.00    0.6454    1.2790
     61.00    0.6349    1.3048
     62.00    0.6237    1.3300
     63.00    0.6119    1.3547
     64.00    0.5995    1.3787
     65.00    0.5865    1.4021
     66.00    0.5729    1.4249
     67.00    0.5587    1.4469
     68.00    0.5440    1.4682
     69.00    0.5287    1.4887
     70.00    0.5129    1.5085
     71.00    0.4965    1.5275
     72.00    0.4797    1.5456
     73.00    0.4623    1.5629
     74.00    0.4445    1.5793
     75.00    0.4262    1.5948
     76.00    0.4074    1.6095
     77.00    0.3882    1.6232
     78.00    0.3686    1.6359
     79.00    0.3486    1.6477
     80.00    0.3282    1.6585
     81.00    0.3075    1.6684
     82.00    0.2864    1.6772
     83.00    0.2650    1.6850
     84.00    0.2433    1.6918
     85.00    0.2213    1.6976
     86.00    0.1990    1.7023
     87.00    0.1765    1.7060
     88.00    0.1538    1.7087
     89.00    0.1309    1.7103
     90.00    0.1078    1.7108
     91.00    0.0846    1.7103
     92.00    0.0612    1.7088
     93.00    0.0378    1.7062
     94.00    0.0142    1.7025
     95.00   -0.0094    1.6979
     96.00   -0.0330    1.6921
     97.00   -0.0566    1.6854
     98.00   -0.0803    1.6776
     99.00   -0.1038    1.6689
    100.00   -0.1273    1.6591
    101.00   -0.1508    1.6483
    102.00   -0.1740    1.6366
    103.00   -0.1972    1.6239
    104.00   -0.2202    1.6103
    105.00   -0.2429    1.5957
    106.00   -0.2655    1.5803
    107.00   -0.2878    1.5639
    108.00   -0.3098    1.5467
    109.00   -0.3315    1.5286
    110.00   -0.3529    1.5097
    111.00   -0.3765    1.4900
    112.00   -0.3971    1.4696
    113.00   -0.4173    1.4484
    114.00   -0.4370    1.4264
    115.00   -0.4562    1.4038
    116.00   -0.4750    1.3805
    117.00   -0.4932    1.3566
    118.00   -0.5109    1.3320
    119.00   -0.5281    1.3069
    120.00   -0.5446    1.2812
    121.00   -0.5605    1.2550
    122.00   -0.5757    1.2284
    123.00   -0.5903    1.2012
    124.00   -0.6042    1.1737
    125.00   -0.6173    1.1458
    126.00   -0.6297    1.1175
    127.00   -0.6414    1.0889
    128.00   -0.6522    1.0601
    129.00   -0.6623    1.0310
    130.00   -0.6715    1.0017
    131.00   -0.6798    0.9722
    132.00   -0.6873    0.9426
    133.00   -0.6939    0.9128
    134.00   -0.6996    0.8831
    135.00   -0.7044    0.8533
    136.00   -0.7082    0.8235
    137.00   -0.7111    0.7937
    138.00   -0.7131    0.7641
    139.00   -0.7141    0.7345
    140.00   -0.7141    0.7052
    141.00   -0.7131    0.6760
    142.00   -0.7111    0.6470
    143.00   -0.7081    0.6183
    144.00   -0.7042    0.5899
    145.00   -0.6992    0.5619
    146.00   -0.6932    0.5342
    147.00   -0.6863    0.5069
    148.00   -0.6784    0.4800
    149.00   -0.6695    0.4536
    150.00   -0.6596    0.4277
    151.00   -0.6488    0.4024
    152.00   -0.6370    0.3776
    153.00   -0.6243    0.3533
    154.00   -0.6108    0.3297
    155.00   -0.5964    0.3068
    156.00   -0.5813    0.2845
    157.00   -0.5653    0.2629
    158.00   -0.5487    0.2421
    159.00   -0.5315    0.2220
    160.00   -0.5138    0.2027
    161.00   -0.4957    0.1841
    162.00   -0.4774    0.1664
    163.00   -0.4590    0.1496
    164.00   -0.4409    0.1335
    165.00   -0.4234    0.1184
    166.00   -0.4070    0.1042
    167.00   -0.3923    0.0909
    168.00   -0.3801    0.0785
    169.00   -0.3716    0.0670
    170.00   -0.3678    0.0565
    171.00   -0.3698    0.0470
    172.00   -0.3773    0.0384
    173.00   -0.3869    0.0308
    174.00   -0.3897    0.0243
    175.00   -0.3722    0.0187
    176.00   -0.3239    0.0141
    177.00   -0.2469    0.0106
    178.00   -0.1527    0.0080
    179.00   -0.0523    0.0065
    180.00    0.0493    0.0060
    180.00    0.0493    0.0060
