AeroDyn airfoil file Created with QBlade v0.963 64bit on 03.01.2019 at 09:20:31 Compatible with AeroDyn v13.0.
Polar "T1_Re0.050_M0.00_N9.0 360 M" on Foil "T1_Re0.050_M0.00_N9.0" :: generated by QBlade
1              Number of airfoil tables in this file
0              Table ID parameter
-175.00        Stall angle (deg)
0              No longer used, enter zero
0              No longer used, enter zero
0              No longer used, enter zero
4.36           Angle of attack for zero Cn for linear Cn curve (deg)
9.49343        Cn slope for zero lift for linear Cn curve (1/rad)
-0.3878        Cn at stall value for positive angle of attack for linear Cn curve
-0.4544        Cn at stall value for negative angle of attack for linear Cn curve
9.30           Angle of attack for minimum CD (deg)
0.0343         Minimum CD value
   -180.00    0.1244    0.0060
   -179.00    0.4908    0.0065
   -178.00    0.8572    0.0080
   -177.00    1.2231    0.0106
   -176.00    1.5611    0.0141
   -175.00    1.7414    0.0187
   -174.00    1.6264    0.0242
   -173.00    1.3252    0.0307
   -172.00    1.0459    0.0382
   -171.00    0.8608    0.0467
   -170.00    0.7548    0.0561
   -169.00    0.7001    0.0665
   -168.00    0.6766    0.0778
   -167.00    0.6721    0.0900
   -166.00    0.6792    0.1031
   -165.00    0.6937    0.1171
   -164.00    0.7128    0.1320
   -163.00    0.7349    0.1477
   -162.00    0.7588    0.1643
   -161.00    0.7839    0.1816
   -160.00    0.8095    0.1997
   -159.00    0.8352    0.2186
   -158.00    0.8609    0.2382
   -157.00    0.8862    0.2586
   -156.00    0.9110    0.2796
   -155.00    0.9351    0.3012
   -154.00    0.9585    0.3236
   -153.00    0.9809    0.3465
   -152.00    1.0024    0.3700
   -151.00    1.0229    0.3940
   -150.00    1.0422    0.4185
   -149.00    1.0603    0.4436
   -148.00    1.0772    0.4691
   -147.00    1.0929    0.4950
   -146.00    1.1071    0.5213
   -145.00    1.1200    0.5480
   -144.00    1.1315    0.5750
   -143.00    1.1415    0.6023
   -142.00    1.1501    0.6299
   -141.00    1.1571    0.6577
   -140.00    1.1626    0.6856
   -139.00    1.1666    0.7138
   -138.00    1.1690    0.7421
   -137.00    1.1698    0.7704
   -136.00    1.1690    0.7988
   -135.00    1.1666    0.8273
   -134.00    1.1626    0.8557
   -133.00    1.1570    0.8841
   -132.00    1.1498    0.9124
   -131.00    1.1410    0.9406
   -130.00    1.1305    0.9686
   -129.00    1.1186    0.9965
   -128.00    1.1050    1.0241
   -127.00    1.0899    1.0515
   -126.00    1.0732    1.0786
   -125.00    1.0551    1.1054
   -124.00    1.0354    1.1319
   -123.00    1.0143    1.1579
   -122.00    0.9918    1.1836
   -121.00    0.9679    1.2088
   -120.00    0.9426    1.2335
   -119.00    0.9159    1.2578
   -118.00    0.8880    1.2815
   -117.00    0.8588    1.3046
   -116.00    0.8284    1.3272
   -115.00    0.7969    1.3492
   -114.00    0.7642    1.3705
   -113.00    0.7305    1.3911
   -112.00    0.6957    1.4111
   -111.00    0.6600    1.4304
   -110.00    0.6233    1.4489
   -109.00    0.5858    1.4666
   -108.00    0.5475    1.4836
   -107.00    0.5080    1.4998
   -106.00    0.4683    1.5151
   -105.00    0.4279    1.5296
   -104.00    0.3869    1.5433
   -103.00    0.3454    1.5561
   -102.00    0.3034    1.5680
   -101.00    0.2610    1.5790
   -100.00    0.2183    1.5891
    -99.00    0.1753    1.5983
    -98.00    0.1321    1.6065
    -97.00    0.0887    1.6138
    -96.00    0.0452    1.6202
    -95.00    0.0017    1.6255
    -94.00   -0.0418    1.6299
    -93.00   -0.0853    1.6334
    -92.00   -0.1285    1.6358
    -91.00   -0.1716    1.6373
    -90.00   -0.2145    1.6378
    -89.00   -0.2570    1.6373
    -88.00   -0.2992    1.6358
    -87.00   -0.3409    1.6334
    -86.00   -0.3821    1.6299
    -85.00   -0.4229    1.6255
    -84.00   -0.4630    1.6202
    -83.00   -0.5025    1.6138
    -82.00   -0.5413    1.6065
    -81.00   -0.5794    1.5983
    -80.00   -0.6167    1.5891
    -79.00   -0.6532    1.5790
    -78.00   -0.6888    1.5680
    -77.00   -0.7235    1.5561
    -76.00   -0.7572    1.5433
    -75.00   -0.7899    1.5296
    -74.00   -0.8217    1.5151
    -73.00   -0.8523    1.4998
    -72.00   -0.8819    1.4836
    -71.00   -0.9103    1.4666
    -70.00   -0.9375    1.4489
    -69.00   -0.9636    1.4304
    -68.00   -0.9885    1.4111
    -67.00   -1.0121    1.3911
    -66.00   -1.0344    1.3705
    -65.00   -1.0555    1.3492
    -64.00   -1.0753    1.3272
    -63.00   -1.0937    1.3046
    -62.00   -1.1109    1.2815
    -61.00   -1.1266    1.2578
    -60.00   -1.1411    1.2335
    -59.00   -1.1541    1.2088
    -58.00   -1.1658    1.1836
    -57.00   -1.1761    1.1579
    -56.00   -1.1851    1.1319
    -55.00   -1.1926    1.1054
    -54.00   -1.1988    1.0786
    -53.00   -1.2036    1.0515
    -52.00   -1.2071    1.0241
    -51.00   -1.2091    0.9965
    -50.00   -1.2099    0.9686
    -49.00   -1.2093    0.9406
    -48.00   -1.2073    0.9124
    -47.00   -1.2041    0.8841
    -46.00   -1.1995    0.8557
    -45.00   -1.1937    0.8273
    -44.00   -1.1866    0.7988
    -43.00   -1.1783    0.7704
    -42.00   -1.1687    0.7421
    -41.00   -1.1580    0.7138
    -40.00   -1.1461    0.6856
    -39.00   -1.1331    0.6577
    -38.00   -1.1189    0.6299
    -37.00   -1.1037    0.6023
    -36.00   -1.0874    0.5750
    -35.00   -1.0701    0.5480
    -34.00   -1.0518    0.5213
    -33.00   -1.0325    0.4950
    -32.00   -1.0124    0.4691
    -31.00   -0.9913    0.4436
    -30.00   -0.9694    0.4185
    -29.00   -0.9467    0.3940
    -28.00   -0.9233    0.3700
    -27.00   -0.8991    0.3465
    -26.00   -0.8743    0.3235
    -25.00   -0.8488    0.3012
    -24.00   -0.8227    0.2796
    -23.00   -0.7960    0.2585
    -22.00   -0.7689    0.2382
    -21.00   -0.7412    0.2186
    -20.00   -0.7132    0.1997
    -19.00   -0.6847    0.1816
    -18.00   -0.6560    0.1642
    -17.00   -0.6269    0.1477
    -16.00   -0.5976    0.1320
    -15.00   -0.5682    0.1171
    -14.00   -0.5386    0.1031
    -13.00   -0.5090    0.0900
    -12.00   -0.4794    0.0778
    -11.00   -0.4500    0.0665
    -10.00   -0.3735    0.1261
     -9.90   -0.3717    0.1258
     -9.80   -0.3792    0.1265
     -9.70   -0.4074    0.1301
     -9.60   -0.4301    0.1325
     -9.50   -0.4455    0.1337
     -9.40   -0.4646    0.1316
     -9.30   -0.4574    0.1287
     -9.20   -0.4452    0.1253
     -9.10   -0.4294    0.1217
     -9.00   -0.4111    0.1181
     -8.90   -0.3981    0.1160
     -8.80   -0.3898    0.1145
     -8.70   -0.3846    0.1133
     -8.60   -0.3822    0.1122
     -8.50   -0.3989    0.1092
     -8.40   -0.4177    0.1061
     -8.30   -0.4377    0.1030
     -8.20   -0.4583    0.1000
     -8.10   -0.4790    0.0969
     -8.00   -0.4831    0.0959
     -7.90   -0.4878    0.0949
     -7.80   -0.4938    0.0938
     -7.70   -0.5018    0.0926
     -7.60   -0.5121    0.0913
     -7.50   -0.5247    0.0899
     -7.40   -0.5393    0.0882
     -7.30   -0.5562    0.0865
     -7.20   -0.5757    0.0845
     -7.10   -0.5987    0.0823
     -7.00   -0.6276    0.0795
     -6.90   -0.6575    0.0763
     -6.80   -0.6754    0.0741
     -6.70   -0.6738    0.0733
     -6.60   -0.6592    0.0733
     -6.50   -0.6335    0.0742
     -6.40   -0.6031    0.0759
     -6.30   -0.5812    0.0767
     -6.20   -0.5754    0.0764
     -6.10   -0.5787    0.0756
     -6.00   -0.5871    0.0745
     -5.90   -0.5998    0.0732
     -5.80   -0.6168    0.0714
     -5.70   -0.6451    0.0680
     -5.60   -0.6719    0.0644
     -5.50   -0.6926    0.0614
     -5.40   -0.7062    0.0590
     -5.30   -0.7116    0.0576
     -5.20   -0.7007    0.0584
     -5.10   -0.6857    0.0598
     -5.00   -0.6713    0.0610
     -4.90   -0.6593    0.0619
     -4.80   -0.6511    0.0622
     -4.70   -0.6482    0.0618
     -4.60   -0.6533    0.0600
     -4.50   -0.6604    0.0578
     -4.40   -0.6667    0.0557
     -4.30   -0.6707    0.0540
     -4.20   -0.6711    0.0527
     -4.10   -0.6652    0.0527
     -4.00   -0.6577    0.0531
     -3.90   -0.6501    0.0535
     -3.80   -0.6428    0.0538
     -3.70   -0.6362    0.0541
     -3.60   -0.6308    0.0540
     -3.50   -0.6273    0.0532
     -3.40   -0.6245    0.0523
     -3.30   -0.6217    0.0515
     -3.20   -0.6186    0.0508
     -3.10   -0.6145    0.0504
     -3.00   -0.6087    0.0507
     -2.90   -0.6025    0.0511
     -2.80   -0.5962    0.0514
     -2.70   -0.5902    0.0516
     -2.60   -0.5845    0.0515
     -2.50   -0.5793    0.0511
     -2.40   -0.5739    0.0504
     -2.30   -0.5689    0.0497
     -2.20   -0.5640    0.0491
     -2.10   -0.5591    0.0487
     -2.00   -0.5540    0.0486
     -1.90   -0.5493    0.0488
     -1.80   -0.5441    0.0490
     -1.70   -0.5388    0.0492
     -1.60   -0.5333    0.0492
     -1.50   -0.5271    0.0491
     -1.40   -0.5209    0.0488
     -1.30   -0.5152    0.0485
     -1.20   -0.5099    0.0482
     -1.10   -0.5047    0.0479
     -1.00   -0.5002    0.0479
     -0.90   -0.4959    0.0479
     -0.80   -0.4910    0.0479
     -0.70   -0.4856    0.0479
     -0.60   -0.4797    0.0478
     -0.50   -0.4724    0.0476
     -0.40   -0.4659    0.0474
     -0.30   -0.4601    0.0471
     -0.20   -0.4548    0.0470
     -0.10   -0.4502    0.0469
      0.00   -0.4470    0.0468
      0.10   -0.4429    0.0468
      0.20   -0.4381    0.0468
      0.30   -0.4324    0.0467
      0.40   -0.4258    0.0467
      0.50   -0.4199    0.0465
      0.60   -0.4145    0.0464
      0.70   -0.4095    0.0462
      0.80   -0.4052    0.0461
      0.90   -0.4014    0.0459
      1.00   -0.3967    0.0458
      1.10   -0.3913    0.0458
      1.20   -0.3850    0.0457
      1.30   -0.3792    0.0457
      1.40   -0.3740    0.0456
      1.50   -0.3692    0.0454
      1.60   -0.3647    0.0453
      1.70   -0.3609    0.0451
      1.80   -0.3565    0.0451
      1.90   -0.3512    0.0450
      2.00   -0.3459    0.0450
      2.10   -0.3407    0.0449
      2.20   -0.3356    0.0448
      2.30   -0.3303    0.0447
      2.40   -0.3253    0.0446
      2.50   -0.3200    0.0445
      2.60   -0.3145    0.0445
      2.70   -0.3088    0.0445
      2.80   -0.3026    0.0445
      2.90   -0.2959    0.0445
      3.00   -0.2890    0.0446
      3.10   -0.2818    0.0446
      3.20   -0.2736    0.0447
      3.30   -0.2639    0.0449
      3.40   -0.2524    0.0452
      3.50   -0.2371    0.0457
      3.60   -0.2173    0.0464
      3.70   -0.1954    0.0473
      3.80   -0.1704    0.0483
      3.90   -0.1403    0.0496
      4.00   -0.0904    0.0511
      4.10   -0.0399    0.0523
      4.20    0.0189    0.0537
      4.30    0.0722    0.0548
      4.40    0.1225    0.0555
      4.50    0.1561    0.0560
      4.60    0.1932    0.0566
      4.70    0.2111    0.0568
      4.80    0.2277    0.0570
      4.90    0.2402    0.0572
      5.00    0.2487    0.0572
      5.10    0.2549    0.0571
      5.20    0.2629    0.0570
      5.30    0.2693    0.0570
      5.40    0.2747    0.0569
      5.50    0.2784    0.0569
      5.60    0.2789    0.0568
      5.70    0.2915    0.0567
      5.80    0.3006    0.0568
      5.90    0.3060    0.0568
      6.00    0.3093    0.0568
      6.10    0.3115    0.0568
      6.20    0.3125    0.0567
      6.30    0.3279    0.0565
      6.40    0.3396    0.0564
      6.50    0.3496    0.0565
      6.60    0.3584    0.0565
      6.70    0.3655    0.0566
      6.80    0.3710    0.0567
      6.90    0.3925    0.0563
      7.00    0.4078    0.0563
      7.10    0.4211    0.0564
      7.20    0.4338    0.0564
      7.30    0.4461    0.0563
      7.40    0.4570    0.0562
      7.50    0.4849    0.0553
      7.60    0.5004    0.0552
      7.70    0.5143    0.0552
      7.80    0.5283    0.0550
      7.90    0.5435    0.0546
      8.00    0.5600    0.0539
      8.10    0.5820    0.0530
      8.20    0.6014    0.0523
      8.30    0.6206    0.0516
      8.40    0.6466    0.0499
      8.50    0.6787    0.0479
      8.60    0.7136    0.0455
      8.70    0.7675    0.0417
      8.80    0.8132    0.0386
      8.90    0.8527    0.0366
      9.00    0.8740    0.0360
      9.10    0.8997    0.0350
      9.20    0.9120    0.0351
      9.30    0.9250    0.0353
      9.40    0.9292    0.0357
      9.50    0.9386    0.0361
      9.60    0.9470    0.0365
      9.70    0.9512    0.0371
      9.80    0.9614    0.0377
      9.90    0.9705    0.0384
     10.00    0.9763    0.0392
     10.10    0.9842    0.0399
     10.20    0.9945    0.0408
     10.30    0.9989    0.0416
     10.40    1.0035    0.0423
     10.50    1.0082    0.0430
     10.60    1.0163    0.0440
     10.70    1.0208    0.0448
     10.80    1.0262    0.0457
     10.90    1.0319    0.0467
     11.00    1.0376    0.0478
     11.10    1.0395    0.0488
     11.20    1.0443    0.0498
     11.30    1.0522    0.0513
     11.40    1.0592    0.0529
     11.50    1.0649    0.0545
     11.60    1.0686    0.0562
     11.70    1.0686    0.0579
     11.80    1.0644    0.0592
     11.90    1.0595    0.0605
     12.00    1.0540    0.0620
     12.10    1.0478    0.0635
     12.20    1.0408    0.0650
     12.30    1.0330    0.0666
     12.40    1.0243    0.0684
     12.50    1.0146    0.0702
     12.60    1.0037    0.0722
     12.70    0.9916    0.0743
     12.80    0.9781    0.0767
     12.90    0.9632    0.0794
     13.00    0.9470    0.0823
     13.10    0.9298    0.0854
     13.20    0.9120    0.0889
     13.30    0.8938    0.0926
     13.40    0.8756    0.0966
     13.50    0.8580    0.1009
     13.60    0.8414    0.1053
     13.70    0.8264    0.1099
     13.80    0.8134    0.1145
     13.90    0.7947    0.1205
     14.00    0.7701    0.1279
     14.10    0.7478    0.1348
     14.20    0.7276    0.1415
     14.30    0.7096    0.1478
     14.40    0.7021    0.1525
     14.50    0.7070    0.1607
     14.60    0.7118    0.1687
     14.70    0.7160    0.1765
     14.80    0.7192    0.1842
     14.90    0.7200    0.1912
     15.00    0.7159    0.1922
     15.10    0.7101    0.1924
     15.20    0.7020    0.1916
     15.30    0.6925    0.1899
     15.40    0.6837    0.1882
     15.50    0.6774    0.1868
     15.60    0.6867    0.1895
     15.70    0.6983    0.1931
     15.80    0.7111    0.1972
     15.90    0.7231    0.2012
     16.00    0.7325    0.2045
     16.10    0.7257    0.2035
     16.20    0.7181    0.2020
     16.30    0.7110    0.2007
     16.40    0.7054    0.1997
     16.50    0.7023    0.1994
     16.60    0.7028    0.2002
     16.70    0.7056    0.2016
     16.80    0.7097    0.2032
     16.90    0.7149    0.2050
     17.00    0.7213    0.2072
     17.10    0.7294    0.2098
     17.20    0.7400    0.2133
     17.30    0.7542    0.2199
     17.40    0.7668    0.2262
     17.50    0.7772    0.2321
     17.60    0.7849    0.2372
     17.70    0.7884    0.2411
     17.80    0.7864    0.2413
     17.90    0.7834    0.2410
     18.00    0.7788    0.2401
     18.10    0.7729    0.2385
     18.20    0.7668    0.2368
     18.30    0.7614    0.2354
     18.40    0.7575    0.2346
     18.50    0.7559    0.2347
     18.60    0.7565    0.2356
     18.70    0.7584    0.2370
     18.80    0.7610    0.2386
     18.90    0.7641    0.2403
     19.00    0.7675    0.2421
     19.10    0.7714    0.2440
     19.20    0.7758    0.2460
     19.30    0.7808    0.2481
     19.40    0.7867    0.2506
     19.50    0.7801    0.2479
     19.60    0.7856    0.2502
     19.70    0.7922    0.2528
     19.80    0.8004    0.2562
     19.90    0.8116    0.2609
     20.00    0.8326    0.2713
     21.00    0.7642    0.2119
     22.00    0.7451    0.2324
     23.00    0.7280    0.2536
     24.00    0.7129    0.2755
     25.00    0.6994    0.2981
     26.00    0.6873    0.3214
     27.00    0.6764    0.3453
     28.00    0.6665    0.3699
     29.00    0.6575    0.3950
     30.00    0.6491    0.4206
     31.00    0.6413    0.4468
     32.00    0.6339    0.4735
     33.00    0.6269    0.5006
     34.00    0.6200    0.5282
     35.00    0.6134    0.5561
     36.00    0.6068    0.5844
     37.00    0.6003    0.6130
     38.00    0.5937    0.6419
     39.00    0.5871    0.6711
     40.00    0.5804    0.7005
     41.00    0.5735    0.7300
     42.00    0.5665    0.7597
     43.00    0.5594    0.7896
     44.00    0.5520    0.8195
     45.00    0.5445    0.8494
     46.00    0.5367    0.8794
     47.00    0.5287    0.9093
     48.00    0.5205    0.9391
     49.00    0.5121    0.9689
     50.00    0.5035    0.9985
     51.00    0.4946    1.0279
     52.00    0.4856    1.0572
     53.00    0.4763    1.0862
     54.00    0.4669    1.1149
     55.00    0.4573    1.1432
     56.00    0.4475    1.1713
     57.00    0.4375    1.1989
     58.00    0.4273    1.2261
     59.00    0.4171    1.2529
     60.00    0.4066    1.2792
     61.00    0.3961    1.3049
     62.00    0.3854    1.3301
     63.00    0.3746    1.3548
     64.00    0.3638    1.3788
     65.00    0.3528    1.4022
     66.00    0.3417    1.4249
     67.00    0.3306    1.4469
     68.00    0.3194    1.4682
     69.00    0.3082    1.4887
     70.00    0.2969    1.5085
     71.00    0.2855    1.5274
     72.00    0.2742    1.5455
     73.00    0.2628    1.5628
     74.00    0.2513    1.5792
     75.00    0.2399    1.5948
     76.00    0.2284    1.6094
     77.00    0.2169    1.6231
     78.00    0.2053    1.6358
     79.00    0.1938    1.6476
     80.00    0.1823    1.6584
     81.00    0.1707    1.6683
     82.00    0.1591    1.6771
     83.00    0.1475    1.6849
     84.00    0.1359    1.6917
     85.00    0.1242    1.6975
     86.00    0.1126    1.7022
     87.00    0.1009    1.7059
     88.00    0.0891    1.7086
     89.00    0.0774    1.7102
     90.00    0.0656    1.7107
     91.00    0.0537    1.7102
     92.00    0.0419    1.7087
     93.00    0.0300    1.7061
     94.00    0.0180    1.7024
     95.00    0.0060    1.6978
     96.00   -0.0061    1.6920
     97.00   -0.0182    1.6853
     98.00   -0.0304    1.6775
     99.00   -0.0426    1.6688
    100.00   -0.0550    1.6590
    101.00   -0.0673    1.6482
    102.00   -0.0797    1.6365
    103.00   -0.0922    1.6238
    104.00   -0.1047    1.6102
    105.00   -0.1173    1.5956
    106.00   -0.1300    1.5802
    107.00   -0.1426    1.5638
    108.00   -0.1553    1.5466
    109.00   -0.1784    1.5286
    110.00   -0.1910    1.5097
    111.00   -0.2035    1.4900
    112.00   -0.2161    1.4695
    113.00   -0.2287    1.4483
    114.00   -0.2412    1.4264
    115.00   -0.2537    1.4038
    116.00   -0.2662    1.3805
    117.00   -0.2786    1.3565
    118.00   -0.2909    1.3320
    119.00   -0.3031    1.3069
    120.00   -0.3152    1.2812
    121.00   -0.3271    1.2550
    122.00   -0.3389    1.2283
    123.00   -0.3505    1.2012
    124.00   -0.3619    1.1737
    125.00   -0.3730    1.1457
    126.00   -0.3838    1.1175
    127.00   -0.3944    1.0889
    128.00   -0.4046    1.0600
    129.00   -0.4145    1.0309
    130.00   -0.4240    1.0016
    131.00   -0.4331    0.9721
    132.00   -0.4417    0.9425
    133.00   -0.4499    0.9128
    134.00   -0.4575    0.8830
    135.00   -0.4646    0.8532
    136.00   -0.4712    0.8235
    137.00   -0.4771    0.7937
    138.00   -0.4824    0.7641
    139.00   -0.4871    0.7345
    140.00   -0.4910    0.7052
    141.00   -0.4943    0.6760
    142.00   -0.4967    0.6470
    143.00   -0.4985    0.6183
    144.00   -0.4994    0.5899
    145.00   -0.4995    0.5619
    146.00   -0.4987    0.5342
    147.00   -0.4971    0.5069
    148.00   -0.4947    0.4800
    149.00   -0.4913    0.4536
    150.00   -0.4870    0.4277
    151.00   -0.4818    0.4024
    152.00   -0.4757    0.3776
    153.00   -0.4687    0.3533
    154.00   -0.4608    0.3297
    155.00   -0.4521    0.3068
    156.00   -0.4425    0.2845
    157.00   -0.4321    0.2629
    158.00   -0.4209    0.2421
    159.00   -0.4091    0.2220
    160.00   -0.3967    0.2027
    161.00   -0.3840    0.1841
    162.00   -0.3711    0.1664
    163.00   -0.3583    0.1495
    164.00   -0.3461    0.1335
    165.00   -0.3351    0.1184
    166.00   -0.3262    0.1042
    167.00   -0.3208    0.0909
    168.00   -0.3212    0.0785
    169.00   -0.3308    0.0670
    170.00   -0.3554    0.0565
    171.00   -0.4043    0.0470
    172.00   -0.4920    0.0384
    173.00   -0.6372    0.0308
    174.00   -0.8471    0.0243
    175.00   -1.0643    0.0187
    176.00   -1.1284    0.0141
    177.00   -0.9416    0.0106
    178.00   -0.6073    0.0080
    179.00   -0.2420    0.0065
    180.00    0.1244    0.0060
    180.00    0.1244    0.0060
