AeroDyn airfoil file Created with QBlade v0.963 64bit on 03.01.2019 at 09:20:32 Compatible with AeroDyn v13.0.
Polar "T1_Re0.185_M0.00_N9.0 360 M" on Foil "T1_Re0.185_M0.00_N9.0" :: generated by QBlade
1              Number of airfoil tables in this file
0              Table ID parameter
14.80          Stall angle (deg)
0              No longer used, enter zero
0              No longer used, enter zero
0              No longer used, enter zero
-0.40          Angle of attack for zero Cn for linear Cn curve (deg)
6.81683        Cn slope for zero lift for linear Cn curve (1/rad)
-1.0719        Cn at stall value for positive angle of attack for linear Cn curve
-1.1312        Cn at stall value for negative angle of attack for linear Cn curve
5.90           Angle of attack for minimum CD (deg)
0.0168         Minimum CD value
   -180.00   -0.0116    0.0060
   -179.00    0.0892    0.0065
   -178.00    0.1886    0.0080
   -177.00    0.2812    0.0106
   -176.00    0.3565    0.0141
   -175.00    0.4039    0.0187
   -174.00    0.4221    0.0242
   -173.00    0.4211    0.0307
   -172.00    0.4136    0.0382
   -171.00    0.4079    0.0467
   -170.00    0.4074    0.0561
   -169.00    0.4123    0.0665
   -168.00    0.4218    0.0778
   -167.00    0.4348    0.0900
   -166.00    0.4503    0.1031
   -165.00    0.4675    0.1171
   -164.00    0.4858    0.1320
   -163.00    0.5047    0.1477
   -162.00    0.5240    0.1642
   -161.00    0.5432    0.1816
   -160.00    0.5623    0.1997
   -159.00    0.5810    0.2186
   -158.00    0.5992    0.2382
   -157.00    0.6169    0.2585
   -156.00    0.6339    0.2796
   -155.00    0.6502    0.3012
   -154.00    0.6656    0.3235
   -153.00    0.6803    0.3465
   -152.00    0.6941    0.3699
   -151.00    0.7069    0.3940
   -150.00    0.7188    0.4185
   -149.00    0.7298    0.4436
   -148.00    0.7397    0.4691
   -147.00    0.7487    0.4950
   -146.00    0.7566    0.5213
   -145.00    0.7635    0.5480
   -144.00    0.7694    0.5750
   -143.00    0.7742    0.6023
   -142.00    0.7780    0.6298
   -141.00    0.7807    0.6576
   -140.00    0.7824    0.6856
   -139.00    0.7830    0.7138
   -138.00    0.7825    0.7420
   -137.00    0.7810    0.7704
   -136.00    0.7785    0.7988
   -135.00    0.7749    0.8272
   -134.00    0.7703    0.8557
   -133.00    0.7647    0.8840
   -132.00    0.7581    0.9123
   -131.00    0.7505    0.9405
   -130.00    0.7420    0.9685
   -129.00    0.7324    0.9964
   -128.00    0.7220    1.0240
   -127.00    0.7106    1.0514
   -126.00    0.6983    1.0785
   -125.00    0.6851    1.1053
   -124.00    0.6711    1.1317
   -123.00    0.6562    1.1578
   -122.00    0.6405    1.1835
   -121.00    0.6240    1.2087
   -120.00    0.6068    1.2334
   -119.00    0.5888    1.2576
   -118.00    0.5701    1.2813
   -117.00    0.5507    1.3045
   -116.00    0.5307    1.3270
   -115.00    0.5100    1.3490
   -114.00    0.4888    1.3703
   -113.00    0.4669    1.3909
   -112.00    0.4445    1.4109
   -111.00    0.4217    1.4301
   -110.00    0.3954    1.4486
   -109.00    0.3716    1.4664
   -108.00    0.3473    1.4833
   -107.00    0.3226    1.4995
   -106.00    0.2976    1.5149
   -105.00    0.2723    1.5294
   -104.00    0.2467    1.5430
   -103.00    0.2208    1.5558
   -102.00    0.1947    1.5677
   -101.00    0.1684    1.5787
   -100.00    0.1419    1.5888
    -99.00    0.1153    1.5979
    -98.00    0.0886    1.6061
    -97.00    0.0618    1.6134
    -96.00    0.0350    1.6197
    -95.00    0.0082    1.6251
    -94.00   -0.0185    1.6295
    -93.00   -0.0453    1.6329
    -92.00   -0.0719    1.6353
    -91.00   -0.0984    1.6367
    -90.00   -0.1248    1.6372
    -89.00   -0.1510    1.6367
    -88.00   -0.1769    1.6352
    -87.00   -0.2027    1.6327
    -86.00   -0.2282    1.6292
    -85.00   -0.2534    1.6248
    -84.00   -0.2783    1.6194
    -83.00   -0.3028    1.6130
    -82.00   -0.3270    1.6057
    -81.00   -0.3508    1.5974
    -80.00   -0.3741    1.5882
    -79.00   -0.3971    1.5781
    -78.00   -0.4195    1.5670
    -77.00   -0.4415    1.5551
    -76.00   -0.4630    1.5422
    -75.00   -0.4839    1.5285
    -74.00   -0.5043    1.5140
    -73.00   -0.5242    1.4986
    -72.00   -0.5434    1.4823
    -71.00   -0.5621    1.4653
    -70.00   -0.5801    1.4475
    -69.00   -0.5975    1.4289
    -68.00   -0.6142    1.4096
    -67.00   -0.6303    1.3896
    -66.00   -0.6457    1.3688
    -65.00   -0.6604    1.3474
    -64.00   -0.6743    1.3254
    -63.00   -0.6876    1.3027
    -62.00   -0.7002    1.2795
    -61.00   -0.7120    1.2557
    -60.00   -0.7231    1.2314
    -59.00   -0.7334    1.2065
    -58.00   -0.7430    1.1812
    -57.00   -0.7518    1.1554
    -56.00   -0.7599    1.1292
    -55.00   -0.7672    1.1027
    -54.00   -0.7737    1.0757
    -53.00   -0.7795    1.0485
    -52.00   -0.7845    1.0209
    -51.00   -0.7888    0.9931
    -50.00   -0.7922    0.9651
    -49.00   -0.7950    0.9369
    -48.00   -0.7970    0.9085
    -47.00   -0.7983    0.8800
    -46.00   -0.7989    0.8514
    -45.00   -0.7987    0.8227
    -44.00   -0.7979    0.7940
    -43.00   -0.7964    0.7654
    -42.00   -0.7943    0.7367
    -41.00   -0.7915    0.7081
    -40.00   -0.7882    0.6797
    -39.00   -0.7843    0.6513
    -38.00   -0.7799    0.6232
    -37.00   -0.7750    0.5952
    -36.00   -0.7697    0.5675
    -35.00   -0.7640    0.5400
    -34.00   -0.7581    0.5128
    -33.00   -0.7519    0.4859
    -32.00   -0.7456    0.4594
    -31.00   -0.7393    0.4332
    -30.00   -0.7331    0.4075
    -29.00   -0.7271    0.3822
    -28.00   -0.7215    0.3573
    -27.00   -0.7166    0.3329
    -26.00   -0.7124    0.3089
    -25.00   -0.7094    0.2855
    -24.00   -0.7077    0.2627
    -23.00   -0.7077    0.2404
    -22.00   -0.7098    0.2186
    -21.00   -0.7145    0.1975
    -20.00   -0.7221    0.1770
    -19.00   -0.7332    0.1572
    -18.00   -0.7480    0.1381
    -17.00   -0.7669    0.1198
    -16.00   -0.7898    0.1024
    -15.00   -0.8159    0.0861
    -14.00   -0.8438    0.0710
    -13.00   -0.8708    0.0573
    -12.00   -0.8931    0.0454
    -11.00   -0.9055    0.0354
    -10.00   -1.1492    0.0273
     -9.90   -1.1436    0.0271
     -9.80   -1.1307    0.0270
     -9.70   -1.1143    0.0269
     -9.60   -1.0967    0.0269
     -9.50   -1.0823    0.0269
     -9.40   -1.0709    0.0262
     -9.30   -1.0574    0.0260
     -9.20   -1.0426    0.0259
     -9.10   -1.0271    0.0259
     -9.00   -1.0176    0.0256
     -8.90   -1.0072    0.0255
     -8.80   -0.9962    0.0254
     -8.70   -0.9845    0.0254
     -8.60   -0.9722    0.0254
     -8.50   -0.9593    0.0254
     -8.40   -0.9481    0.0249
     -8.30   -0.9354    0.0247
     -8.20   -0.9217    0.0246
     -8.10   -0.9073    0.0247
     -8.00   -0.8920    0.0248
     -7.80   -0.8785    0.0243
     -7.70   -0.8690    0.0242
     -7.60   -0.8585    0.0241
     -7.50   -0.8473    0.0241
     -7.40   -0.8359    0.0239
     -7.30   -0.8249    0.0236
     -7.20   -0.8125    0.0235
     -7.10   -0.7989    0.0235
     -7.00   -0.7842    0.0235
     -6.90   -0.7688    0.0235
     -6.80   -0.7526    0.0236
     -6.70   -0.7358    0.0237
     -6.60   -0.7185    0.0238
     -6.50   -0.7008    0.0240
     -6.40   -0.7068    0.0233
     -6.30   -0.6987    0.0230
     -6.20   -0.6892    0.0229
     -6.10   -0.6786    0.0228
     -6.00   -0.6673    0.0227
     -5.90   -0.6553    0.0227
     -5.80   -0.6427    0.0227
     -5.70   -0.6295    0.0228
     -5.60   -0.6158    0.0228
     -5.50   -0.6016    0.0229
     -5.40   -0.5879    0.0227
     -5.30   -0.5742    0.0226
     -5.20   -0.5598    0.0226
     -5.10   -0.5450    0.0227
     -5.00   -0.5297    0.0227
     -4.90   -0.5140    0.0228
     -4.80   -0.4977    0.0229
     -4.70   -0.4807    0.0231
     -4.50   -0.4828    0.0226
     -4.40   -0.4723    0.0225
     -4.30   -0.4613    0.0223
     -4.20   -0.4495    0.0223
     -4.10   -0.4373    0.0223
     -4.00   -0.4246    0.0223
     -3.90   -0.4113    0.0224
     -3.80   -0.3974    0.0224
     -3.70   -0.3831    0.0224
     -3.60   -0.3683    0.0225
     -3.50   -0.3532    0.0225
     -3.40   -0.3388    0.0224
     -3.30   -0.3243    0.0224
     -3.20   -0.3094    0.0224
     -3.10   -0.2943    0.0225
     -3.00   -0.2787    0.0226
     -2.90   -0.2627    0.0227
     -2.80   -0.2468    0.0229
     -2.60   -0.2544    0.0228
     -2.50   -0.2455    0.0229
     -2.40   -0.2355    0.0228
     -2.30   -0.2246    0.0228
     -2.20   -0.2126    0.0228
     -2.10   -0.1996    0.0228
     -2.00   -0.1860    0.0228
     -1.90   -0.1715    0.0229
     -1.80   -0.1566    0.0229
     -1.70   -0.1412    0.0229
     -1.60   -0.1256    0.0229
     -1.50   -0.1100    0.0230
     -1.40   -0.0947    0.0230
     -1.30   -0.0807    0.0230
     -1.20   -0.0667    0.0231
     -1.10   -0.0523    0.0232
     -1.00   -0.0376    0.0233
     -0.90   -0.0225    0.0234
     -0.80   -0.0071    0.0236
     -0.70   -0.0337    0.0238
     -0.60   -0.0249    0.0239
     -0.50   -0.0134    0.0239
     -0.40   -0.0004    0.0239
     -0.30    0.0135    0.0239
     -0.20    0.0280    0.0239
     -0.10    0.0410    0.0238
      0.00    0.0536    0.0239
      0.10    0.0668    0.0239
      0.20    0.0805    0.0240
      0.30    0.0944    0.0240
      0.40    0.1091    0.0240
      0.50    0.1244    0.0240
      0.60    0.1402    0.0240
      0.70    0.1565    0.0239
      0.80    0.1730    0.0239
      0.90    0.1897    0.0238
      1.00    0.2066    0.0238
      1.10    0.2239    0.0238
      1.40    0.2145    0.0245
      1.50    0.2266    0.0244
      1.60    0.2388    0.0243
      1.70    0.2512    0.0243
      1.80    0.2642    0.0242
      1.90    0.2781    0.0241
      2.00    0.2927    0.0240
      2.10    0.3080    0.0239
      2.20    0.3239    0.0237
      2.30    0.3404    0.0235
      2.40    0.3572    0.0233
      2.50    0.3747    0.0230
      2.60    0.3927    0.0228
      2.70    0.4111    0.0225
      2.80    0.4301    0.0222
      2.90    0.4496    0.0219
      3.00    0.4694    0.0217
      3.10    0.4887    0.0213
      3.30    0.4538    0.0227
      3.40    0.4662    0.0224
      3.50    0.4797    0.0222
      3.60    0.4939    0.0219
      3.70    0.5092    0.0216
      3.80    0.5259    0.0212
      3.90    0.5437    0.0208
      4.00    0.5626    0.0204
      4.10    0.5823    0.0200
      4.20    0.6029    0.0196
      4.30    0.6241    0.0192
      4.40    0.6474    0.0189
      4.50    0.6732    0.0186
      4.60    0.6539    0.0192
      4.70    0.6557    0.0193
      4.80    0.6669    0.0192
      4.90    0.6823    0.0190
      5.00    0.6995    0.0187
      5.10    0.7179    0.0182
      5.20    0.7395    0.0177
      5.30    0.7656    0.0173
      5.40    0.7686    0.0173
      5.50    0.7642    0.0175
      5.60    0.7668    0.0175
      5.70    0.7778    0.0173
      5.80    0.7943    0.0171
      5.90    0.8160    0.0168
      6.00    0.8198    0.0169
      6.10    0.8216    0.0170
      6.20    0.8293    0.0170
      6.30    0.8440    0.0169
      6.40    0.8557    0.0169
      6.50    0.8592    0.0170
      6.60    0.8668    0.0171
      6.70    0.8786    0.0171
      6.80    0.8846    0.0173
      6.90    0.8904    0.0174
      7.00    0.8971    0.0176
      7.10    0.9023    0.0179
      7.20    0.9066    0.0180
      7.30    0.9091    0.0181
      7.40    0.9131    0.0182
      7.50    0.9156    0.0184
      7.60    0.9165    0.0187
      7.70    0.9200    0.0189
      7.80    0.9226    0.0191
      7.90    0.9236    0.0194
      8.00    0.9257    0.0197
      8.10    0.9291    0.0200
      8.20    0.9306    0.0203
      8.30    0.9314    0.0207
      8.40    0.9371    0.0209
      8.50    0.9405    0.0213
      8.60    0.9423    0.0217
      8.70    0.9475    0.0220
      8.80    0.9532    0.0223
      8.90    0.9565    0.0227
      9.00    0.9582    0.0233
      9.10    0.9650    0.0235
      9.20    0.9705    0.0239
      9.30    0.9738    0.0243
      9.40    0.9754    0.0248
      9.50    0.9814    0.0250
      9.60    0.9859    0.0252
      9.70    0.9882    0.0256
      9.80    0.9884    0.0261
      9.90    0.9896    0.0266
     10.00    0.9953    0.0268
     10.10    0.9993    0.0272
     10.20    1.0017    0.0277
     10.30    1.0020    0.0284
     10.40    1.0056    0.0289
     10.50    1.0125    0.0292
     10.60    1.0179    0.0295
     10.70    1.0215    0.0301
     10.80    1.0225    0.0308
     10.90    1.0225    0.0317
     11.00    1.0298    0.0320
     11.10    1.0361    0.0323
     11.20    1.0415    0.0328
     11.40    1.0493    0.0339
     11.50    1.0506    0.0345
     11.60    1.0496    0.0356
     11.70    1.0524    0.0364
     11.80    1.0577    0.0367
     11.90    1.0625    0.0371
     12.00    1.0670    0.0376
     12.10    1.0712    0.0381
     12.20    1.0753    0.0386
     12.30    1.0789    0.0392
     12.40    1.0823    0.0398
     12.50    1.0855    0.0404
     12.70    1.0892    0.0418
     12.80    1.0895    0.0427
     12.90    1.0918    0.0452
     13.00    1.0949    0.0456
     13.10    1.0984    0.0461
     13.30    1.1047    0.0471
     13.40    1.1097    0.0479
     13.50    1.1141    0.0487
     13.60    1.1182    0.0495
     13.70    1.1222    0.0504
     13.80    1.1259    0.0514
     13.90    1.1293    0.0524
     14.00    1.1324    0.0534
     14.10    1.1352    0.0545
     14.20    1.1376    0.0556
     14.30    1.1397    0.0567
     14.40    1.1413    0.0579
     14.50    1.1420    0.0592
     14.60    1.1424    0.0605
     14.70    1.1426    0.0619
     14.80    1.1427    0.0633
     14.90    1.1425    0.0647
     15.00    1.1420    0.0661
     15.10    1.1409    0.0677
     15.20    1.1388    0.0693
     15.30    1.1365    0.0710
     15.40    1.1341    0.0727
     15.50    1.1315    0.0745
     15.60    1.1283    0.0763
     15.70    1.1239    0.0783
     15.80    1.1192    0.0804
     15.90    1.1144    0.0825
     16.00    1.1092    0.0848
     16.10    1.1025    0.0872
     16.20    1.0953    0.0898
     16.30    1.0879    0.0924
     16.40    1.0795    0.0952
     16.50    1.0697    0.0984
     16.60    1.0598    0.1016
     16.70    1.0479    0.1053
     16.80    1.0350    0.1092
     16.90    1.0194    0.1138
     17.00    1.0013    0.1190
     17.10    0.9741    0.1264
     17.20    0.8407    0.1650
     17.30    0.8324    0.1702
     17.40    0.8273    0.1745
     17.50    0.8237    0.1783
     17.60    0.8212    0.1818
     17.70    0.8195    0.1852
     17.80    0.8183    0.1884
     17.90    0.8175    0.1914
     18.00    0.8170    0.1945
     18.10    0.8164    0.1975
     18.30    0.8302    0.1995
     18.40    0.8048    0.2193
     18.50    0.8071    0.2208
     18.60    0.8042    0.2210
     18.70    0.8055    0.2231
     18.80    0.8072    0.2252
     18.90    0.8091    0.2272
     19.00    0.8112    0.2292
     19.10    0.8135    0.2312
     19.20    0.8159    0.2331
     19.30    0.8185    0.2350
     19.40    0.8212    0.2368
     19.50    0.8242    0.2385
     19.60    0.8273    0.2401
     19.70    0.8307    0.2417
     19.80    0.8343    0.2432
     19.90    0.8382    0.2447
     20.00    0.8425    0.2460
     21.00    0.7990    0.1981
     22.00    0.7771    0.2215
     23.00    0.7637    0.2451
     24.00    0.7568    0.2690
     25.00    0.7548    0.2932
     26.00    0.7565    0.3178
     27.00    0.7610    0.3427
     28.00    0.7674    0.3681
     29.00    0.7753    0.3939
     30.00    0.7841    0.4202
     31.00    0.7936    0.4468
     32.00    0.8034    0.4739
     33.00    0.8134    0.5013
     34.00    0.8233    0.5291
     35.00    0.8330    0.5572
     36.00    0.8424    0.5857
     37.00    0.8514    0.6144
     38.00    0.8599    0.6434
     39.00    0.8678    0.6727
     40.00    0.8751    0.7021
     41.00    0.8817    0.7317
     42.00    0.8876    0.7614
     43.00    0.8927    0.7913
     44.00    0.8970    0.8212
     45.00    0.9005    0.8512
     46.00    0.9032    0.8811
     47.00    0.9049    0.9110
     48.00    0.9058    0.9408
     49.00    0.9057    0.9706
     50.00    0.9048    1.0002
     51.00    0.9029    1.0296
     52.00    0.9000    1.0588
     53.00    0.8962    1.0877
     54.00    0.8914    1.1164
     55.00    0.8857    1.1447
     56.00    0.8789    1.1727
     57.00    0.8713    1.2003
     58.00    0.8626    1.2275
     59.00    0.8530    1.2542
     60.00    0.8424    1.2805
     61.00    0.8308    1.3062
     62.00    0.8183    1.3314
     63.00    0.8048    1.3560
     64.00    0.7904    1.3800
     65.00    0.7751    1.4033
     66.00    0.7588    1.4260
     67.00    0.7417    1.4480
     68.00    0.7236    1.4692
     69.00    0.7047    1.4897
     70.00    0.6850    1.5094
     71.00    0.6644    1.5284
     72.00    0.6430    1.5465
     73.00    0.6208    1.5637
     74.00    0.5978    1.5801
     75.00    0.5741    1.5956
     76.00    0.5496    1.6102
     77.00    0.5245    1.6239
     78.00    0.4987    1.6366
     79.00    0.4722    1.6483
     80.00    0.4452    1.6591
     81.00    0.4175    1.6689
     82.00    0.3893    1.6777
     83.00    0.3606    1.6855
     84.00    0.3315    1.6923
     85.00    0.3018    1.6981
     86.00    0.2718    1.7028
     87.00    0.2414    1.7065
     88.00    0.2106    1.7091
     89.00    0.1796    1.7107
     90.00    0.1482    1.7112
     91.00    0.1167    1.7107
     92.00    0.0850    1.7091
     93.00    0.0531    1.7065
     94.00    0.0211    1.7029
     95.00   -0.0109    1.6982
     96.00   -0.0429    1.6924
     97.00   -0.0750    1.6857
     98.00   -0.1069    1.6779
     99.00   -0.1388    1.6691
    100.00   -0.1705    1.6593
    101.00   -0.2020    1.6486
    102.00   -0.2333    1.6368
    103.00   -0.2643    1.6241
    104.00   -0.2950    1.6105
    105.00   -0.3253    1.5959
    106.00   -0.3552    1.5804
    107.00   -0.3847    1.5641
    108.00   -0.4137    1.5469
    109.00   -0.4422    1.5288
    110.00   -0.4714    1.5099
    111.00   -0.4987    1.4902
    112.00   -0.5254    1.4697
    113.00   -0.5513    1.4485
    114.00   -0.5766    1.4266
    115.00   -0.6011    1.4039
    116.00   -0.6248    1.3806
    117.00   -0.6478    1.3567
    118.00   -0.6698    1.3321
    119.00   -0.6910    1.3070
    120.00   -0.7112    1.2813
    121.00   -0.7305    1.2551
    122.00   -0.7488    1.2284
    123.00   -0.7661    1.2013
    124.00   -0.7824    1.1738
    125.00   -0.7976    1.1459
    126.00   -0.8118    1.1176
    127.00   -0.8249    1.0890
    128.00   -0.8368    1.0601
    129.00   -0.8476    1.0310
    130.00   -0.8573    1.0017
    131.00   -0.8658    0.9722
    132.00   -0.8731    0.9426
    133.00   -0.8792    0.9129
    134.00   -0.8841    0.8831
    135.00   -0.8879    0.8533
    136.00   -0.8904    0.8235
    137.00   -0.8917    0.7938
    138.00   -0.8918    0.7641
    139.00   -0.8907    0.7346
    140.00   -0.8884    0.7052
    141.00   -0.8849    0.6760
    142.00   -0.8802    0.6470
    143.00   -0.8743    0.6184
    144.00   -0.8673    0.5900
    145.00   -0.8591    0.5619
    146.00   -0.8497    0.5342
    147.00   -0.8392    0.5069
    148.00   -0.8277    0.4800
    149.00   -0.8150    0.4536
    150.00   -0.8014    0.4277
    151.00   -0.7867    0.4024
    152.00   -0.7710    0.3776
    153.00   -0.7544    0.3534
    154.00   -0.7370    0.3298
    155.00   -0.7187    0.3068
    156.00   -0.6996    0.2845
    157.00   -0.6798    0.2629
    158.00   -0.6595    0.2421
    159.00   -0.6386    0.2220
    160.00   -0.6173    0.2027
    161.00   -0.5959    0.1841
    162.00   -0.5743    0.1664
    163.00   -0.5530    0.1496
    164.00   -0.5322    0.1335
    165.00   -0.5123    0.1184
    166.00   -0.4939    0.1042
    167.00   -0.4777    0.0909
    168.00   -0.4646    0.0785
    169.00   -0.4557    0.0670
    170.00   -0.4523    0.0565
    171.00   -0.4551    0.0470
    172.00   -0.4631    0.0384
    173.00   -0.4716    0.0308
    174.00   -0.4700    0.0243
    175.00   -0.4451    0.0187
    176.00   -0.3894    0.0141
    177.00   -0.3079    0.0106
    178.00   -0.2124    0.0080
    179.00   -0.1123    0.0065
    180.00   -0.0116    0.0060
    180.00   -0.0116    0.0060
