AeroDyn airfoil file Created with QBlade v0.963 64bit on 03.01.2019 at 09:20:31 Compatible with AeroDyn v13.0.
Polar "T1_Re0.055_M0.00_N9.0 360 M" on Foil "T1_Re0.055_M0.00_N9.0" :: generated by QBlade
1              Number of airfoil tables in this file
0              Table ID parameter
-174.00        Stall angle (deg)
0              No longer used, enter zero
0              No longer used, enter zero
0              No longer used, enter zero
4.29           Angle of attack for zero Cn for linear Cn curve (deg)
9.73922        Cn slope for zero lift for linear Cn curve (1/rad)
-0.5105        Cn at stall value for positive angle of attack for linear Cn curve
-0.4538        Cn at stall value for negative angle of attack for linear Cn curve
9.20           Angle of attack for minimum CD (deg)
0.0318         Minimum CD value
   -180.00    0.1243    0.0060
   -179.00    0.3763    0.0065
   -178.00    0.6283    0.0080
   -177.00    0.8802    0.0106
   -176.00    1.1208    0.0141
   -175.00    1.2921    0.0187
   -174.00    1.3062    0.0242
   -173.00    1.1666    0.0307
   -172.00    0.9837    0.0382
   -171.00    0.8391    0.0467
   -170.00    0.7479    0.0561
   -169.00    0.6982    0.0665
   -168.00    0.6763    0.0778
   -167.00    0.6721    0.0900
   -166.00    0.6792    0.1031
   -165.00    0.6935    0.1171
   -164.00    0.7123    0.1320
   -163.00    0.7342    0.1477
   -162.00    0.7579    0.1643
   -161.00    0.7827    0.1816
   -160.00    0.8081    0.1997
   -159.00    0.8337    0.2186
   -158.00    0.8591    0.2382
   -157.00    0.8843    0.2586
   -156.00    0.9089    0.2796
   -155.00    0.9329    0.3012
   -154.00    0.9561    0.3236
   -153.00    0.9784    0.3465
   -152.00    0.9997    0.3700
   -151.00    1.0200    0.3940
   -150.00    1.0392    0.4185
   -149.00    1.0572    0.4436
   -148.00    1.0740    0.4691
   -147.00    1.0895    0.4950
   -146.00    1.1036    0.5213
   -145.00    1.1164    0.5480
   -144.00    1.1278    0.5750
   -143.00    1.1377    0.6023
   -142.00    1.1462    0.6299
   -141.00    1.1531    0.6577
   -140.00    1.1585    0.6856
   -139.00    1.1624    0.7138
   -138.00    1.1647    0.7421
   -137.00    1.1655    0.7704
   -136.00    1.1646    0.7988
   -135.00    1.1622    0.8273
   -134.00    1.1582    0.8557
   -133.00    1.1525    0.8841
   -132.00    1.1453    0.9124
   -131.00    1.1365    0.9406
   -130.00    1.1260    0.9686
   -129.00    1.1141    0.9965
   -128.00    1.1005    1.0241
   -127.00    1.0854    1.0515
   -126.00    1.0688    1.0786
   -125.00    1.0507    1.1054
   -124.00    1.0311    1.1319
   -123.00    1.0100    1.1579
   -122.00    0.9876    1.1836
   -121.00    0.9637    1.2088
   -120.00    0.9385    1.2335
   -119.00    0.9119    1.2578
   -118.00    0.8841    1.2815
   -117.00    0.8550    1.3046
   -116.00    0.8248    1.3272
   -115.00    0.7933    1.3492
   -114.00    0.7608    1.3705
   -113.00    0.7272    1.3911
   -112.00    0.6926    1.4111
   -111.00    0.6570    1.4304
   -110.00    0.6205    1.4489
   -109.00    0.5831    1.4666
   -108.00    0.5450    1.4836
   -107.00    0.5057    1.4998
   -106.00    0.4661    1.5151
   -105.00    0.4259    1.5296
   -104.00    0.3851    1.5433
   -103.00    0.3437    1.5561
   -102.00    0.3020    1.5680
   -101.00    0.2598    1.5790
   -100.00    0.2173    1.5891
    -99.00    0.1745    1.5983
    -98.00    0.1314    1.6065
    -97.00    0.0883    1.6138
    -96.00    0.0450    1.6202
    -95.00    0.0017    1.6255
    -94.00   -0.0416    1.6299
    -93.00   -0.0849    1.6334
    -92.00   -0.1279    1.6358
    -91.00   -0.1708    1.6373
    -90.00   -0.2134    1.6378
    -89.00   -0.2558    1.6373
    -88.00   -0.2977    1.6358
    -87.00   -0.3393    1.6334
    -86.00   -0.3803    1.6299
    -85.00   -0.4208    1.6255
    -84.00   -0.4608    1.6202
    -83.00   -0.5001    1.6138
    -82.00   -0.5387    1.6065
    -81.00   -0.5766    1.5983
    -80.00   -0.6138    1.5891
    -79.00   -0.6501    1.5790
    -78.00   -0.6855    1.5680
    -77.00   -0.7201    1.5561
    -76.00   -0.7536    1.5433
    -75.00   -0.7863    1.5296
    -74.00   -0.8178    1.5151
    -73.00   -0.8484    1.4998
    -72.00   -0.8778    1.4836
    -71.00   -0.9061    1.4666
    -70.00   -0.9332    1.4489
    -69.00   -0.9592    1.4304
    -68.00   -0.9840    1.4111
    -67.00   -1.0075    1.3911
    -66.00   -1.0298    1.3705
    -65.00   -1.0508    1.3492
    -64.00   -1.0705    1.3272
    -63.00   -1.0889    1.3046
    -62.00   -1.1060    1.2815
    -61.00   -1.1217    1.2578
    -60.00   -1.1361    1.2335
    -59.00   -1.1491    1.2088
    -58.00   -1.1608    1.1836
    -57.00   -1.1711    1.1579
    -56.00   -1.1800    1.1319
    -55.00   -1.1876    1.1054
    -54.00   -1.1938    1.0786
    -53.00   -1.1986    1.0515
    -52.00   -1.2021    1.0241
    -51.00   -1.2042    0.9965
    -50.00   -1.2050    0.9686
    -49.00   -1.2044    0.9406
    -48.00   -1.2026    0.9124
    -47.00   -1.1994    0.8841
    -46.00   -1.1949    0.8557
    -45.00   -1.1892    0.8273
    -44.00   -1.1821    0.7988
    -43.00   -1.1739    0.7704
    -42.00   -1.1645    0.7421
    -41.00   -1.1538    0.7138
    -40.00   -1.1420    0.6856
    -39.00   -1.1291    0.6577
    -38.00   -1.1150    0.6299
    -37.00   -1.0999    0.6023
    -36.00   -1.0837    0.5750
    -35.00   -1.0665    0.5480
    -34.00   -1.0484    0.5213
    -33.00   -1.0292    0.4950
    -32.00   -1.0092    0.4691
    -31.00   -0.9883    0.4436
    -30.00   -0.9666    0.4185
    -29.00   -0.9440    0.3940
    -28.00   -0.9207    0.3699
    -27.00   -0.8966    0.3465
    -26.00   -0.8719    0.3235
    -25.00   -0.8466    0.3012
    -24.00   -0.8206    0.2796
    -23.00   -0.7941    0.2585
    -22.00   -0.7670    0.2382
    -21.00   -0.7395    0.2186
    -20.00   -0.7116    0.1997
    -19.00   -0.6833    0.1816
    -18.00   -0.6546    0.1642
    -17.00   -0.6257    0.1477
    -16.00   -0.5965    0.1320
    -15.00   -0.5672    0.1171
    -14.00   -0.5377    0.1031
    -13.00   -0.5082    0.0900
    -12.00   -0.4787    0.0778
    -11.00   -0.4493    0.0665
    -10.00   -0.4983    0.1135
     -9.90   -0.5100    0.1115
     -9.80   -0.5273    0.1090
     -9.70   -0.5493    0.1063
     -9.60   -0.4683    0.1164
     -9.50   -0.4677    0.1151
     -9.40   -0.4658    0.1138
     -9.30   -0.4621    0.1126
     -9.20   -0.4563    0.1116
     -9.10   -0.4470    0.1108
     -9.00   -0.4324    0.1106
     -8.90   -0.4839    0.1043
     -8.80   -0.4895    0.1027
     -8.70   -0.4955    0.1011
     -8.60   -0.5024    0.0995
     -8.50   -0.5101    0.0978
     -8.40   -0.5191    0.0962
     -8.30   -0.5294    0.0944
     -8.20   -0.5415    0.0925
     -8.10   -0.5558    0.0905
     -8.00   -0.5706    0.0884
     -7.90   -0.5889    0.0860
     -7.80   -0.6122    0.0832
     -7.70   -0.6440    0.0798
     -7.60   -0.6954    0.0747
     -7.50   -0.7935    0.0644
     -7.40   -0.8243    0.0598
     -7.30   -0.7892    0.0625
     -7.20   -0.5735    0.0819
     -7.10   -0.5599    0.0825
     -7.00   -0.5597    0.0820
     -6.90   -0.5656    0.0810
     -6.80   -0.5758    0.0796
     -6.70   -0.5903    0.0779
     -6.60   -0.6101    0.0759
     -6.50   -0.6378    0.0734
     -6.40   -0.6798    0.0697
     -6.30   -0.7841    0.0562
     -6.20   -0.8038    0.0519
     -6.10   -0.7935    0.0523
     -6.00   -0.7811    0.0531
     -5.90   -0.7691    0.0541
     -5.80   -0.7572    0.0549
     -5.70   -0.7467    0.0556
     -5.60   -0.7384    0.0560
     -5.50   -0.7301    0.0563
     -5.40   -0.7264    0.0560
     -5.30   -0.7281    0.0548
     -5.20   -0.7357    0.0523
     -5.10   -0.7481    0.0480
     -5.00   -0.7449    0.0469
     -4.90   -0.7370    0.0475
     -4.80   -0.7285    0.0483
     -4.70   -0.7198    0.0491
     -4.60   -0.7113    0.0499
     -4.50   -0.7034    0.0505
     -4.40   -0.6961    0.0509
     -4.30   -0.6898    0.0510
     -4.20   -0.6856    0.0505
     -4.10   -0.6839    0.0491
     -4.00   -0.6826    0.0460
     -3.90   -0.6775    0.0451
     -3.80   -0.6718    0.0454
     -3.70   -0.6657    0.0457
     -3.60   -0.6595    0.0461
     -3.50   -0.6531    0.0466
     -3.40   -0.6468    0.0470
     -3.30   -0.6406    0.0473
     -3.20   -0.6344    0.0475
     -3.10   -0.6285    0.0474
     -3.00   -0.6227    0.0468
     -2.90   -0.6127    0.0448
     -2.80   -0.6090    0.0448
     -2.70   -0.6045    0.0451
     -2.60   -0.5995    0.0454
     -2.50   -0.5943    0.0458
     -2.40   -0.5888    0.0461
     -2.30   -0.5832    0.0463
     -2.20   -0.5773    0.0464
     -2.10   -0.5712    0.0463
     -2.00   -0.5646    0.0460
     -1.90   -0.5565    0.0454
     -1.80   -0.5433    0.0443
     -1.70   -0.5404    0.0443
     -1.60   -0.5370    0.0445
     -1.50   -0.5332    0.0448
     -1.40   -0.5289    0.0451
     -1.30   -0.5241    0.0453
     -1.20   -0.5191    0.0455
     -1.10   -0.5134    0.0456
     -1.00   -0.5068    0.0455
     -0.90   -0.4980    0.0453
     -0.80   -0.4834    0.0448
     -0.70   -0.4815    0.0446
     -0.60   -0.4787    0.0446
     -0.50   -0.4751    0.0447
     -0.40   -0.4709    0.0448
     -0.30   -0.4662    0.0448
     -0.20   -0.4609    0.0449
     -0.10   -0.4549    0.0449
      0.00   -0.4479    0.0448
      0.10   -0.4388    0.0448
      0.20   -0.4249    0.0448
      0.30   -0.4245    0.0445
      0.40   -0.4228    0.0444
      0.50   -0.4200    0.0445
      0.60   -0.4165    0.0445
      0.70   -0.4119    0.0446
      0.80   -0.4064    0.0446
      0.90   -0.3995    0.0446
      1.00   -0.3907    0.0446
      1.10   -0.3785    0.0448
      1.20   -0.3757    0.0444
      1.30   -0.3738    0.0442
      1.40   -0.3706    0.0442
      1.50   -0.3668    0.0441
      1.60   -0.3623    0.0442
      1.70   -0.3569    0.0442
      1.80   -0.3504    0.0443
      1.90   -0.3420    0.0444
      2.00   -0.3333    0.0446
      2.10   -0.3332    0.0442
      2.20   -0.3311    0.0440
      2.30   -0.3275    0.0440
      2.40   -0.3228    0.0440
      2.50   -0.3172    0.0441
      2.60   -0.3106    0.0442
      2.70   -0.3028    0.0443
      2.80   -0.2966    0.0443
      2.90   -0.2938    0.0441
      3.00   -0.2904    0.0440
      3.10   -0.2833    0.0441
      3.20   -0.2703    0.0447
      3.30   -0.2589    0.0451
      3.40   -0.2395    0.0462
      3.50   -0.2327    0.0461
      3.60   -0.2166    0.0465
      3.70   -0.1932    0.0479
      3.80   -0.1895    0.0475
      3.90   -0.1526    0.0495
      4.00   -0.1475    0.0493
      4.20   -0.0496    0.0497
      4.30    0.0046    0.0512
      4.40    0.0063    0.0507
      4.50    0.0200    0.0508
      4.60    0.0600    0.0514
      4.70    0.1334    0.0529
      4.80    0.1310    0.0526
      4.90    0.1483    0.0528
      5.00    0.1743    0.0532
      5.10    0.2115    0.0535
      5.20    0.2701    0.0541
      5.30    0.2675    0.0542
      5.40    0.2763    0.0543
      5.50    0.3060    0.0544
      5.60    0.3270    0.0543
      5.70    0.3516    0.0541
      5.80    0.3842    0.0539
      5.90    0.3454    0.0543
      6.00    0.3317    0.0543
      6.10    0.3349    0.0541
      6.20    0.3494    0.0538
      6.30    0.3743    0.0533
      6.40    0.4078    0.0527
      6.50    0.4168    0.0527
      6.60    0.3697    0.0534
      6.70    0.3690    0.0534
      6.80    0.3821    0.0532
      6.90    0.4041    0.0527
      7.00    0.4366    0.0519
      7.10    0.4747    0.0508
      7.20    0.4387    0.0525
      7.30    0.4356    0.0529
      7.40    0.4533    0.0525
      7.50    0.4823    0.0515
      7.60    0.5158    0.0502
      7.70    0.5540    0.0485
      7.80    0.5988    0.0461
      8.00    0.5513    0.0504
      8.10    0.5853    0.0485
      8.20    0.6269    0.0457
      8.30    0.6805    0.0419
      8.40    0.7428    0.0379
      8.50    0.6719    0.0440
      8.60    0.7050    0.0416
      8.70    0.8432    0.0327
      8.80    0.8258    0.0339
      8.90    0.8347    0.0337
      9.00    0.8804    0.0319
      9.10    0.8780    0.0324
      9.20    0.9149    0.0318
      9.30    0.9092    0.0324
      9.40    0.9125    0.0328
      9.50    0.9336    0.0330
      9.60    0.9305    0.0335
      9.70    0.9338    0.0339
      9.80    0.9504    0.0345
      9.90    0.9491    0.0351
     10.00    0.9538    0.0356
     10.10    0.9761    0.0366
     10.20    0.9756    0.0373
     10.30    0.9790    0.0379
     10.40    0.9871    0.0384
     10.50    1.0002    0.0396
     10.60    0.9987    0.0402
     10.70    0.9996    0.0407
     10.80    1.0037    0.0412
     10.90    1.0226    0.0427
     11.00    1.0232    0.0435
     11.10    1.0260    0.0443
     11.20    1.0307    0.0452
     11.30    1.0384    0.0459
     11.40    1.0668    0.0490
     11.50    1.0664    0.0498
     11.60    1.0663    0.0508
     11.70    1.0666    0.0519
     11.80    1.0672    0.0532
     11.90    1.0679    0.0544
     12.00    1.0679    0.0556
     12.10    1.0678    0.0566
     12.20    1.0697    0.0574
     12.30    1.0797    0.0577
     12.40    1.0881    0.0606
     12.50    1.0813    0.0623
     12.60    1.0756    0.0630
     12.70    1.0696    0.0639
     12.80    1.0634    0.0650
     12.90    1.0571    0.0662
     13.00    1.0505    0.0676
     13.10    1.0433    0.0692
     13.20    1.0354    0.0709
     13.30    1.0265    0.0728
     13.40    1.0165    0.0748
     13.50    1.0058    0.0770
     13.60    0.9937    0.0792
     13.70    0.9806    0.0817
     13.80    0.9664    0.0844
     13.90    0.9511    0.0874
     14.00    0.9348    0.0906
     14.10    0.9174    0.0943
     14.20    0.8994    0.0984
     14.30    0.8819    0.1028
     14.40    0.8653    0.1075
     14.50    0.8500    0.1122
     14.60    0.8362    0.1171
     14.70    0.8240    0.1218
     15.10    0.7340    0.1565
     15.20    0.7312    0.1590
     15.30    0.7280    0.1615
     15.40    0.7252    0.1638
     15.50    0.7229    0.1660
     15.60    0.7216    0.1683
     15.70    0.7219    0.1706
     15.80    0.7262    0.1733
     15.90    0.7367    0.1770
     16.00    0.6871    0.1852
     16.10    0.6907    0.1867
     16.20    0.6952    0.1884
     16.30    0.7012    0.1902
     16.40    0.7093    0.1923
     16.50    0.7202    0.1951
     16.60    0.7357    0.1991
     16.70    0.7538    0.2050
     16.80    0.7693    0.2186
     16.90    0.7702    0.2202
     17.00    0.7708    0.2217
     17.10    0.7700    0.2227
     17.20    0.7682    0.2234
     17.30    0.7658    0.2237
     17.40    0.7621    0.2233
     17.50    0.7549    0.2216
     17.60    0.7434    0.2184
     17.70    0.7362    0.2168
     17.80    0.7351    0.2174
     17.90    0.7363    0.2186
     18.00    0.7384    0.2201
     18.10    0.7413    0.2216
     18.20    0.7446    0.2233
     18.30    0.7483    0.2250
     18.40    0.7525    0.2268
     18.50    0.7572    0.2287
     18.60    0.7626    0.2308
     18.70    0.7687    0.2330
     18.80    0.7760    0.2357
     18.90    0.7851    0.2390
     19.00    0.7976    0.2438
     19.10    0.8170    0.2529
     19.20    0.8265    0.2654
     19.30    0.8266    0.2665
     19.40    0.8257    0.2672
     19.50    0.8246    0.2678
     19.60    0.8230    0.2680
     19.70    0.8206    0.2678
     19.80    0.8163    0.2668
     19.90    0.8103    0.2651
     20.00    0.8039    0.2631
     21.00    0.7057    0.2088
     22.00    0.6841    0.2297
     23.00    0.6658    0.2512
     24.00    0.6502    0.2735
     25.00    0.6369    0.2964
     26.00    0.6256    0.3199
     27.00    0.6158    0.3440
     28.00    0.6074    0.3688
     29.00    0.6000    0.3941
     30.00    0.5934    0.4199
     31.00    0.5875    0.4462
     32.00    0.5821    0.4730
     33.00    0.5771    0.5002
     34.00    0.5723    0.5278
     35.00    0.5676    0.5558
     36.00    0.5630    0.5842
     37.00    0.5584    0.6129
     38.00    0.5537    0.6419
     39.00    0.5489    0.6711
     40.00    0.5439    0.7005
     41.00    0.5388    0.7301
     42.00    0.5334    0.7598
     43.00    0.5278    0.7897
     44.00    0.5220    0.8196
     45.00    0.5159    0.8496
     46.00    0.5095    0.8796
     47.00    0.5029    0.9095
     48.00    0.4959    0.9394
     49.00    0.4887    0.9691
     50.00    0.4813    0.9988
     51.00    0.4735    1.0282
     52.00    0.4655    1.0574
     53.00    0.4573    1.0864
     54.00    0.4488    1.1151
     55.00    0.4400    1.1435
     56.00    0.4311    1.1715
     57.00    0.4219    1.1992
     58.00    0.4125    1.2264
     59.00    0.4030    1.2532
     60.00    0.3932    1.2794
     61.00    0.3833    1.3052
     62.00    0.3732    1.3304
     63.00    0.3630    1.3550
     64.00    0.3527    1.3791
     65.00    0.3422    1.4024
     66.00    0.3316    1.4251
     67.00    0.3209    1.4471
     68.00    0.3101    1.4684
     69.00    0.2993    1.4889
     70.00    0.2883    1.5087
     71.00    0.2773    1.5276
     72.00    0.2662    1.5458
     73.00    0.2550    1.5630
     74.00    0.2438    1.5795
     75.00    0.2326    1.5950
     76.00    0.2213    1.6096
     77.00    0.2099    1.6233
     78.00    0.1985    1.6360
     79.00    0.1871    1.6478
     80.00    0.1757    1.6586
     81.00    0.1642    1.6684
     82.00    0.1527    1.6773
     83.00    0.1411    1.6851
     84.00    0.1295    1.6919
     85.00    0.1179    1.6976
     86.00    0.1062    1.7024
     87.00    0.0945    1.7061
     88.00    0.0828    1.7087
     89.00    0.0710    1.7103
     90.00    0.0591    1.7109
     91.00    0.0473    1.7104
     92.00    0.0353    1.7088
     93.00    0.0233    1.7062
     94.00    0.0113    1.7026
     95.00   -0.0008    1.6979
     96.00   -0.0129    1.6922
     97.00   -0.0252    1.6854
     98.00   -0.0374    1.6776
     99.00   -0.0498    1.6689
    100.00   -0.0622    1.6591
    101.00   -0.0746    1.6483
    102.00   -0.0871    1.6366
    103.00   -0.0997    1.6239
    104.00   -0.1123    1.6103
    105.00   -0.1250    1.5957
    106.00   -0.1377    1.5803
    107.00   -0.1505    1.5639
    108.00   -0.1633    1.5467
    109.00   -0.1761    1.5286
    110.00   -0.1945    1.5097
    111.00   -0.2073    1.4900
    112.00   -0.2200    1.4696
    113.00   -0.2327    1.4484
    114.00   -0.2454    1.4264
    115.00   -0.2580    1.4038
    116.00   -0.2706    1.3805
    117.00   -0.2831    1.3566
    118.00   -0.2955    1.3320
    119.00   -0.3078    1.3069
    120.00   -0.3200    1.2812
    121.00   -0.3320    1.2550
    122.00   -0.3439    1.2284
    123.00   -0.3555    1.2012
    124.00   -0.3669    1.1737
    125.00   -0.3781    1.1458
    126.00   -0.3889    1.1175
    127.00   -0.3995    1.0889
    128.00   -0.4097    1.0601
    129.00   -0.4196    1.0310
    130.00   -0.4290    1.0016
    131.00   -0.4381    0.9722
    132.00   -0.4467    0.9426
    133.00   -0.4548    0.9128
    134.00   -0.4623    0.8831
    135.00   -0.4694    0.8533
    136.00   -0.4758    0.8235
    137.00   -0.4817    0.7937
    138.00   -0.4869    0.7641
    139.00   -0.4914    0.7345
    140.00   -0.4952    0.7052
    141.00   -0.4984    0.6760
    142.00   -0.5007    0.6470
    143.00   -0.5023    0.6183
    144.00   -0.5031    0.5899
    145.00   -0.5030    0.5619
    146.00   -0.5021    0.5342
    147.00   -0.5004    0.5069
    148.00   -0.4977    0.4800
    149.00   -0.4942    0.4536
    150.00   -0.4898    0.4277
    151.00   -0.4844    0.4024
    152.00   -0.4781    0.3776
    153.00   -0.4710    0.3533
    154.00   -0.4629    0.3297
    155.00   -0.4539    0.3068
    156.00   -0.4441    0.2845
    157.00   -0.4335    0.2629
    158.00   -0.4221    0.2421
    159.00   -0.4100    0.2220
    160.00   -0.3974    0.2027
    161.00   -0.3843    0.1841
    162.00   -0.3709    0.1664
    163.00   -0.3576    0.1496
    164.00   -0.3447    0.1335
    165.00   -0.3327    0.1184
    166.00   -0.3224    0.1042
    167.00   -0.3150    0.0909
    168.00   -0.3123    0.0785
    169.00   -0.3168    0.0670
    170.00   -0.3328    0.0565
    171.00   -0.3665    0.0470
    172.00   -0.4263    0.0384
    173.00   -0.5200    0.0308
    174.00   -0.6419    0.0243
    175.00   -0.7466    0.0187
    176.00   -0.7476    0.0141
    177.00   -0.6061    0.0106
    178.00   -0.3781    0.0080
    179.00   -0.1277    0.0065
    180.00    0.1243    0.0060
    180.00    0.1243    0.0060
