AeroDyn airfoil file Created with QBlade v0.963 64bit on 03.01.2019 at 09:20:32 Compatible with AeroDyn v13.0.
Polar "T1_Re0.120_M0.00_N9.0 360 M" on Foil "T1_Re0.120_M0.00_N9.0" :: generated by QBlade
1              Number of airfoil tables in this file
0              Table ID parameter
13.80          Stall angle (deg)
0              No longer used, enter zero
0              No longer used, enter zero
0              No longer used, enter zero
0.97           Angle of attack for zero Cn for linear Cn curve (deg)
6.32314        Cn slope for zero lift for linear Cn curve (1/rad)
-1.0628        Cn at stall value for positive angle of attack for linear Cn curve
-1.0687        Cn at stall value for negative angle of attack for linear Cn curve
7.50           Angle of attack for minimum CD (deg)
0.0205         Minimum CD value
   -180.00    0.0285    0.0060
   -179.00    0.1277    0.0065
   -178.00    0.2268    0.0080
   -177.00    0.3240    0.0106
   -176.00    0.4128    0.0141
   -175.00    0.4809    0.0187
   -174.00    0.5179    0.0242
   -173.00    0.5244    0.0307
   -172.00    0.5135    0.0382
   -171.00    0.4992    0.0467
   -170.00    0.4896    0.0561
   -169.00    0.4873    0.0665
   -168.00    0.4919    0.0778
   -167.00    0.5018    0.0900
   -166.00    0.5157    0.1031
   -165.00    0.5325    0.1171
   -164.00    0.5512    0.1320
   -163.00    0.5711    0.1477
   -162.00    0.5917    0.1642
   -161.00    0.6127    0.1816
   -160.00    0.6337    0.1997
   -159.00    0.6546    0.2186
   -158.00    0.6751    0.2382
   -157.00    0.6951    0.2585
   -156.00    0.7146    0.2795
   -155.00    0.7334    0.3012
   -154.00    0.7514    0.3235
   -153.00    0.7686    0.3464
   -152.00    0.7849    0.3699
   -151.00    0.8002    0.3939
   -150.00    0.8146    0.4185
   -149.00    0.8280    0.4435
   -148.00    0.8404    0.4690
   -147.00    0.8516    0.4949
   -146.00    0.8618    0.5212
   -145.00    0.8708    0.5479
   -144.00    0.8787    0.5749
   -143.00    0.8855    0.6022
   -142.00    0.8910    0.6298
   -141.00    0.8954    0.6575
   -140.00    0.8986    0.6855
   -139.00    0.9005    0.7137
   -138.00    0.9013    0.7419
   -137.00    0.9009    0.7703
   -136.00    0.8992    0.7987
   -135.00    0.8963    0.8271
   -134.00    0.8922    0.8555
   -133.00    0.8870    0.8839
   -132.00    0.8805    0.9122
   -131.00    0.8728    0.9403
   -130.00    0.8640    0.9684
   -129.00    0.8540    0.9962
   -128.00    0.8429    1.0238
   -127.00    0.8306    1.0512
   -126.00    0.8172    1.0783
   -125.00    0.8027    1.1051
   -124.00    0.7872    1.1315
   -123.00    0.7706    1.1575
   -122.00    0.7530    1.1832
   -121.00    0.7344    1.2084
   -120.00    0.7148    1.2331
   -119.00    0.6942    1.2573
   -118.00    0.6728    1.2810
   -117.00    0.6505    1.3041
   -116.00    0.6273    1.3267
   -115.00    0.6033    1.3486
   -114.00    0.5786    1.3699
   -113.00    0.5531    1.3905
   -112.00    0.5269    1.4104
   -111.00    0.5000    1.4297
   -110.00    0.4724    1.4481
   -109.00    0.4362    1.4658
   -108.00    0.4074    1.4828
   -107.00    0.3780    1.4989
   -106.00    0.3481    1.5142
   -105.00    0.3179    1.5287
   -104.00    0.2872    1.5423
   -103.00    0.2561    1.5551
   -102.00    0.2247    1.5670
   -101.00    0.1931    1.5779
   -100.00    0.1612    1.5880
    -99.00    0.1291    1.5971
    -98.00    0.0969    1.6053
    -97.00    0.0645    1.6125
    -96.00    0.0321    1.6188
    -95.00   -0.0003    1.6241
    -94.00   -0.0328    1.6284
    -93.00   -0.0651    1.6318
    -92.00   -0.0974    1.6342
    -91.00   -0.1296    1.6356
    -90.00   -0.1616    1.6360
    -89.00   -0.1933    1.6354
    -88.00   -0.2248    1.6339
    -87.00   -0.2561    1.6313
    -86.00   -0.2870    1.6278
    -85.00   -0.3175    1.6233
    -84.00   -0.3477    1.6178
    -83.00   -0.3774    1.6114
    -82.00   -0.4067    1.6040
    -81.00   -0.4354    1.5957
    -80.00   -0.4637    1.5864
    -79.00   -0.4913    1.5762
    -78.00   -0.5184    1.5650
    -77.00   -0.5449    1.5530
    -76.00   -0.5708    1.5401
    -75.00   -0.5959    1.5263
    -74.00   -0.6204    1.5116
    -73.00   -0.6442    1.4961
    -72.00   -0.6672    1.4798
    -71.00   -0.6895    1.4626
    -70.00   -0.7110    1.4447
    -69.00   -0.7317    1.4260
    -68.00   -0.7516    1.4066
    -67.00   -0.7707    1.3864
    -66.00   -0.7889    1.3656
    -65.00   -0.8062    1.3441
    -64.00   -0.8228    1.3219
    -63.00   -0.8384    1.2991
    -62.00   -0.8531    1.2757
    -61.00   -0.8670    1.2518
    -60.00   -0.8800    1.2273
    -59.00   -0.8921    1.2022
    -58.00   -0.9033    1.1767
    -57.00   -0.9136    1.1508
    -56.00   -0.9230    1.1244
    -55.00   -0.9315    1.0976
    -54.00   -0.9392    1.0705
    -53.00   -0.9460    1.0430
    -52.00   -0.9519    1.0153
    -51.00   -0.9570    0.9872
    -50.00   -0.9612    0.9590
    -49.00   -0.9647    0.9305
    -48.00   -0.9674    0.9019
    -47.00   -0.9693    0.8731
    -46.00   -0.9705    0.8442
    -45.00   -0.9710    0.8152
    -44.00   -0.9708    0.7862
    -43.00   -0.9700    0.7572
    -42.00   -0.9686    0.7282
    -41.00   -0.9667    0.6993
    -40.00   -0.9643    0.6705
    -39.00   -0.9614    0.6418
    -38.00   -0.9582    0.6132
    -37.00   -0.9548    0.5848
    -36.00   -0.9511    0.5567
    -35.00   -0.9473    0.5288
    -34.00   -0.9434    0.5011
    -33.00   -0.9397    0.4738
    -32.00   -0.9362    0.4468
    -31.00   -0.9330    0.4202
    -30.00   -0.9302    0.3940
    -29.00   -0.9281    0.3682
    -28.00   -0.9268    0.3429
    -27.00   -0.9264    0.3181
    -26.00   -0.9272    0.2938
    -25.00   -0.9293    0.2701
    -24.00   -0.9330    0.2470
    -23.00   -0.9383    0.2246
    -22.00   -0.9455    0.2028
    -21.00   -0.9546    0.1818
    -20.00   -0.9655    0.1617
    -19.00   -0.9783    0.1424
    -18.00   -0.9926    0.1242
    -17.00   -1.0077    0.1070
    -16.00   -1.0229    0.0911
    -15.00   -1.0369    0.0765
    -14.00   -1.0479    0.0634
    -13.00   -1.0540    0.0518
    -12.00   -1.0526    0.0419
    -11.00   -1.0412    0.0337
    -10.00   -1.1209    0.0333
     -9.90   -1.1160    0.0330
     -9.80   -1.1109    0.0328
     -9.70   -1.1056    0.0326
     -9.60   -1.1001    0.0323
     -9.50   -1.0947    0.0321
     -9.40   -1.0891    0.0319
     -9.30   -1.0834    0.0316
     -9.20   -1.0775    0.0314
     -9.10   -1.0714    0.0313
     -9.00   -1.0653    0.0309
     -8.90   -1.0594    0.0300
     -8.80   -1.0527    0.0297
     -8.70   -1.0457    0.0296
     -8.60   -1.0386    0.0294
     -8.50   -1.0313    0.0293
     -8.40   -1.0239    0.0291
     -8.30   -1.0164    0.0289
     -8.20   -1.0089    0.0287
     -8.10   -1.0012    0.0285
     -8.00   -0.9933    0.0284
     -7.90   -0.9852    0.0282
     -7.80   -0.9773    0.0279
     -7.70   -0.9701    0.0273
     -7.60   -0.9625    0.0271
     -7.50   -0.9545    0.0270
     -7.40   -0.9464    0.0269
     -7.30   -0.9382    0.0269
     -7.20   -0.9299    0.0268
     -7.10   -0.9214    0.0267
     -7.00   -0.9128    0.0267
     -6.90   -0.9040    0.0266
     -6.80   -0.8951    0.0265
     -6.70   -0.8866    0.0262
     -6.60   -0.8786    0.0258
     -6.50   -0.8705    0.0256
     -6.40   -0.8621    0.0256
     -6.30   -0.8535    0.0255
     -6.20   -0.8449    0.0255
     -6.10   -0.8361    0.0254
     -6.00   -0.8272    0.0254
     -5.90   -0.8181    0.0253
     -5.80   -0.8089    0.0253
     -5.70   -0.7995    0.0253
     -5.60   -0.7907    0.0250
     -5.50   -0.7826    0.0249
     -5.40   -0.7743    0.0248
     -5.30   -0.7658    0.0248
     -5.20   -0.7572    0.0249
     -5.10   -0.7484    0.0249
     -5.00   -0.7393    0.0249
     -4.90   -0.7301    0.0249
     -4.80   -0.7207    0.0249
     -4.70   -0.7111    0.0249
     -4.60   -0.7016    0.0248
     -4.50   -0.6365    0.0262
     -4.40   -0.6229    0.0264
     -4.30   -0.6079    0.0267
     -4.20   -0.5912    0.0270
     -4.10   -0.5722    0.0275
     -4.00   -0.5619    0.0273
     -3.90   -0.5508    0.0273
     -3.80   -0.5398    0.0271
     -3.70   -0.5287    0.0272
     -3.60   -0.5166    0.0273
     -3.50   -0.5033    0.0275
     -3.40   -0.4888    0.0278
     -3.30   -0.4730    0.0281
     -3.20   -0.4558    0.0285
     -3.10   -0.4369    0.0289
     -2.90   -0.4271    0.0284
     -2.80   -0.4186    0.0283
     -2.70   -0.4086    0.0284
     -2.60   -0.3966    0.0286
     -2.50   -0.3827    0.0289
     -2.40   -0.3671    0.0292
     -2.30   -0.3499    0.0295
     -2.20   -0.3312    0.0298
     -2.10   -0.3112    0.0302
     -2.00   -0.3110    0.0298
     -1.90   -0.3037    0.0298
     -1.80   -0.2966    0.0297
     -1.70   -0.2886    0.0298
     -1.60   -0.2793    0.0300
     -1.50   -0.2688    0.0303
     -1.40   -0.2574    0.0305
     -1.30   -0.2447    0.0308
     -1.20   -0.2308    0.0311
     -1.10   -0.2152    0.0314
     -1.00   -0.1973    0.0317
     -0.90   -0.1773    0.0320
     -0.80   -0.1557    0.0323
     -0.70   -0.1687    0.0317
     -0.60   -0.1641    0.0317
     -0.50   -0.1562    0.0318
     -0.40   -0.1469    0.0320
     -0.30   -0.1367    0.0322
     -0.20   -0.1254    0.0325
     -0.10   -0.1131    0.0327
      0.00   -0.0995    0.0330
      0.10   -0.0846    0.0332
      0.20   -0.0676    0.0334
      0.30   -0.0485    0.0337
      0.40   -0.0280    0.0339
      0.50   -0.0061    0.0342
      0.60   -0.0277    0.0338
      0.70   -0.0239    0.0337
      0.80   -0.0165    0.0338
      0.90   -0.0075    0.0339
      1.00    0.0027    0.0341
      1.10    0.0141    0.0342
      1.20    0.0271    0.0343
      1.30    0.0417    0.0344
      1.40    0.0575    0.0345
      1.50    0.0749    0.0346
      1.60    0.0939    0.0347
      1.70    0.1144    0.0348
      1.80    0.1353    0.0349
      1.90    0.1128    0.0352
      2.00    0.1174    0.0351
      2.10    0.1233    0.0351
      2.20    0.1316    0.0350
      2.30    0.1420    0.0350
      2.40    0.1545    0.0350
      2.50    0.1688    0.0349
      2.60    0.1845    0.0348
      2.70    0.2014    0.0347
      2.80    0.2189    0.0346
      2.90    0.2360    0.0345
      3.00    0.2541    0.0344
      3.10    0.2736    0.0344
      3.40    0.2706    0.0352
      3.50    0.2803    0.0348
      3.60    0.2916    0.0345
      3.70    0.3046    0.0343
      3.80    0.3187    0.0340
      3.90    0.3337    0.0337
      4.00    0.3502    0.0334
      4.10    0.3680    0.0330
      4.20    0.3868    0.0326
      4.30    0.4060    0.0322
      4.40    0.4259    0.0318
      4.50    0.4464    0.0314
      4.90    0.4556    0.0322
      5.00    0.4689    0.0315
      5.10    0.4836    0.0309
      5.20    0.4997    0.0302
      5.30    0.5171    0.0295
      5.40    0.5359    0.0288
      5.50    0.5561    0.0280
      5.60    0.5780    0.0273
      5.70    0.6012    0.0265
      5.80    0.6255    0.0257
      6.00    0.5986    0.0273
      6.10    0.6170    0.0267
      6.20    0.6391    0.0260
      6.30    0.6633    0.0252
      6.40    0.6856    0.0243
      6.50    0.7108    0.0232
      6.60    0.7453    0.0221
      6.70    0.7301    0.0226
      6.80    0.7283    0.0227
      6.90    0.7382    0.0224
      7.00    0.7610    0.0217
      7.10    0.7982    0.0207
      7.20    0.7918    0.0210
      7.30    0.7942    0.0211
      7.40    0.8099    0.0208
      7.50    0.8292    0.0205
      7.60    0.8290    0.0207
      7.70    0.8367    0.0207
      7.80    0.8519    0.0206
      7.90    0.8519    0.0207
      8.00    0.8547    0.0207
      8.10    0.8617    0.0207
      8.20    0.8632    0.0209
      8.30    0.8664    0.0210
      8.40    0.8711    0.0213
      8.50    0.8743    0.0215
      8.60    0.8773    0.0217
      8.70    0.8809    0.0220
      8.80    0.8854    0.0223
      8.90    0.8894    0.0226
      9.00    0.8928    0.0230
      9.10    0.8955    0.0233
      9.20    0.8986    0.0235
      9.30    0.9005    0.0237
      9.40    0.9015    0.0241
      9.50    0.9049    0.0245
      9.60    0.9088    0.0248
      9.80    0.9145    0.0258
      9.90    0.9214    0.0261
     10.00    0.9265    0.0265
     10.20    0.9329    0.0277
     10.30    0.9400    0.0281
     10.40    0.9456    0.0286
     10.50    0.9494    0.0293
     10.60    0.9550    0.0302
     10.70    0.9621    0.0306
     10.80    0.9684    0.0312
     10.90    0.9736    0.0318
     11.00    0.9777    0.0326
     11.10    0.9866    0.0336
     11.20    0.9927    0.0340
     11.30    0.9982    0.0346
     11.40    1.0028    0.0352
     11.50    1.0065    0.0358
     11.60    1.0100    0.0367
     11.70    1.0192    0.0378
     11.80    1.0244    0.0383
     11.90    1.0310    0.0389
     12.00    1.0376    0.0396
     12.10    1.0438    0.0403
     12.20    1.0494    0.0410
     12.30    1.0546    0.0417
     12.40    1.0595    0.0425
     12.50    1.0664    0.0435
     12.60    1.0814    0.0458
     12.70    1.0859    0.0464
     12.80    1.0904    0.0472
     12.90    1.0951    0.0480
     13.00    1.0997    0.0490
     13.10    1.1041    0.0500
     13.20    1.1077    0.0511
     13.30    1.1105    0.0523
     13.40    1.1129    0.0535
     13.50    1.1148    0.0547
     13.60    1.1161    0.0560
     13.70    1.1169    0.0574
     13.80    1.1171    0.0587
     13.90    1.1166    0.0601
     14.00    1.1155    0.0615
     14.10    1.1135    0.0630
     14.20    1.1111    0.0644
     14.30    1.1087    0.0659
     14.40    1.1060    0.0675
     14.50    1.1031    0.0690
     14.60    1.0994    0.0707
     14.70    1.0954    0.0724
     14.80    1.0914    0.0741
     14.90    1.0874    0.0758
     15.00    1.0828    0.0776
     15.10    1.0771    0.0796
     15.20    1.0712    0.0816
     15.30    1.0651    0.0837
     15.40    1.0572    0.0861
     15.50    1.0477    0.0887
     15.60    1.0370    0.0916
     15.70    1.0177    0.0960
     15.80    0.9788    0.1039
     15.90    0.9170    0.1174
     16.00    0.8530    0.1343
     16.10    0.8216    0.1454
     16.20    0.8101    0.1511
     16.30    0.8030    0.1555
     16.40    0.7980    0.1594
     16.50    0.7944    0.1630
     16.60    0.7916    0.1664
     16.70    0.7943    0.1692
     16.80    0.7994    0.1705
     16.90    0.8036    0.1724
     17.00    0.7674    0.1916
     17.10    0.7750    0.1928
     17.20    0.7874    0.1935
     17.30    0.7942    0.1971
     17.40    0.7848    0.2054
     17.50    0.7863    0.2076
     17.60    0.7878    0.2099
     17.70    0.7893    0.2121
     17.80    0.7910    0.2142
     17.90    0.7926    0.2163
     18.00    0.7943    0.2185
     18.10    0.7960    0.2205
     18.20    0.7977    0.2224
     18.30    0.7993    0.2242
     18.40    0.8007    0.2257
     18.50    0.8015    0.2268
     18.60    0.7967    0.2266
     18.70    0.7922    0.2273
     18.80    0.7924    0.2290
     18.90    0.7938    0.2308
     19.00    0.7958    0.2326
     19.10    0.7982    0.2344
     19.20    0.8008    0.2361
     19.30    0.8036    0.2379
     19.40    0.8067    0.2396
     19.50    0.8099    0.2413
     19.60    0.8134    0.2429
     19.70    0.8171    0.2446
     19.80    0.8211    0.2462
     19.90    0.8253    0.2478
     20.00    0.8298    0.2495
     21.00    0.7709    0.1924
     22.00    0.7493    0.2156
     23.00    0.7337    0.2392
     24.00    0.7230    0.2632
     25.00    0.7164    0.2875
     26.00    0.7129    0.3124
     27.00    0.7120    0.3376
     28.00    0.7130    0.3633
     29.00    0.7155    0.3893
     30.00    0.7191    0.4158
     31.00    0.7234    0.4427
     32.00    0.7283    0.4700
     33.00    0.7336    0.4977
     34.00    0.7389    0.5257
     35.00    0.7443    0.5540
     36.00    0.7495    0.5827
     37.00    0.7545    0.6116
     38.00    0.7592    0.6408
     39.00    0.7634    0.6701
     40.00    0.7673    0.6997
     41.00    0.7706    0.7295
     42.00    0.7734    0.7593
     43.00    0.7756    0.7893
     44.00    0.7772    0.8193
     45.00    0.7782    0.8494
     46.00    0.7785    0.8794
     47.00    0.7781    0.9094
     48.00    0.7770    0.9393
     49.00    0.7751    0.9691
     50.00    0.7726    0.9988
     51.00    0.7693    1.0283
     52.00    0.7653    1.0575
     53.00    0.7605    1.0865
     54.00    0.7549    1.1153
     55.00    0.7486    1.1437
     56.00    0.7416    1.1717
     57.00    0.7338    1.1994
     58.00    0.7252    1.2266
     59.00    0.7159    1.2534
     60.00    0.7058    1.2797
     61.00    0.6950    1.3054
     62.00    0.6835    1.3306
     63.00    0.6713    1.3553
     64.00    0.6583    1.3793
     65.00    0.6446    1.4027
     66.00    0.6303    1.4254
     67.00    0.6152    1.4474
     68.00    0.5995    1.4686
     69.00    0.5831    1.4892
     70.00    0.5661    1.5089
     71.00    0.5485    1.5279
     72.00    0.5302    1.5460
     73.00    0.5114    1.5633
     74.00    0.4919    1.5797
     75.00    0.4720    1.5952
     76.00    0.4514    1.6098
     77.00    0.4304    1.6235
     78.00    0.4089    1.6362
     79.00    0.3869    1.6480
     80.00    0.3644    1.6588
     81.00    0.3415    1.6686
     82.00    0.3182    1.6774
     83.00    0.2945    1.6852
     84.00    0.2704    1.6920
     85.00    0.2461    1.6978
     86.00    0.2214    1.7025
     87.00    0.1964    1.7062
     88.00    0.1711    1.7089
     89.00    0.1457    1.7105
     90.00    0.1200    1.7110
     91.00    0.0942    1.7105
     92.00    0.0682    1.7089
     93.00    0.0421    1.7063
     94.00    0.0159    1.7027
     95.00   -0.0104    1.6980
     96.00   -0.0367    1.6923
     97.00   -0.0630    1.6855
     98.00   -0.0892    1.6778
     99.00   -0.1154    1.6690
    100.00   -0.1415    1.6592
    101.00   -0.1674    1.6484
    102.00   -0.1932    1.6367
    103.00   -0.2189    1.6240
    104.00   -0.2442    1.6104
    105.00   -0.2694    1.5958
    106.00   -0.2942    1.5803
    107.00   -0.3188    1.5640
    108.00   -0.3430    1.5468
    109.00   -0.3668    1.5287
    110.00   -0.3922    1.5098
    111.00   -0.4152    1.4901
    112.00   -0.4377    1.4696
    113.00   -0.4597    1.4484
    114.00   -0.4811    1.4265
    115.00   -0.5020    1.4039
    116.00   -0.5223    1.3806
    117.00   -0.5420    1.3566
    118.00   -0.5610    1.3321
    119.00   -0.5794    1.3069
    120.00   -0.5971    1.2813
    121.00   -0.6140    1.2551
    122.00   -0.6302    1.2284
    123.00   -0.6456    1.2013
    124.00   -0.6602    1.1737
    125.00   -0.6740    1.1458
    126.00   -0.6869    1.1175
    127.00   -0.6990    1.0890
    128.00   -0.7101    1.0601
    129.00   -0.7204    1.0310
    130.00   -0.7297    1.0017
    131.00   -0.7381    0.9722
    132.00   -0.7455    0.9426
    133.00   -0.7519    0.9129
    134.00   -0.7573    0.8831
    135.00   -0.7618    0.8533
    136.00   -0.7652    0.8235
    137.00   -0.7676    0.7937
    138.00   -0.7689    0.7641
    139.00   -0.7692    0.7346
    140.00   -0.7685    0.7052
    141.00   -0.7667    0.6760
    142.00   -0.7639    0.6470
    143.00   -0.7600    0.6183
    144.00   -0.7551    0.5899
    145.00   -0.7491    0.5619
    146.00   -0.7421    0.5342
    147.00   -0.7340    0.5069
    148.00   -0.7250    0.4800
    149.00   -0.7149    0.4536
    150.00   -0.7039    0.4277
    151.00   -0.6919    0.4024
    152.00   -0.6789    0.3776
    153.00   -0.6651    0.3533
    154.00   -0.6504    0.3297
    155.00   -0.6348    0.3068
    156.00   -0.6185    0.2845
    157.00   -0.6014    0.2629
    158.00   -0.5837    0.2421
    159.00   -0.5654    0.2220
    160.00   -0.5466    0.2027
    161.00   -0.5275    0.1841
    162.00   -0.5082    0.1664
    163.00   -0.4890    0.1496
    164.00   -0.4701    0.1335
    165.00   -0.4520    0.1184
    166.00   -0.4350    0.1042
    167.00   -0.4198    0.0909
    168.00   -0.4074    0.0785
    169.00   -0.3988    0.0670
    170.00   -0.3950    0.0565
    171.00   -0.3970    0.0470
    172.00   -0.4042    0.0384
    173.00   -0.4125    0.0308
    174.00   -0.4126    0.0243
    175.00   -0.3912    0.0187
    176.00   -0.3398    0.0141
    177.00   -0.2620    0.0106
    178.00   -0.1690    0.0080
    179.00   -0.0707    0.0065
    180.00    0.0285    0.0060
    180.00    0.0285    0.0060
