AeroDyn airfoil file Created with QBlade v0.963 64bit on 03.01.2019 at 09:20:31 Compatible with AeroDyn v13.0.
Polar "T1_Re0.070_M0.00_N9.0 360 M" on Foil "T1_Re0.070_M0.00_N9.0" :: generated by QBlade
1              Number of airfoil tables in this file
0              Table ID parameter
13.00          Stall angle (deg)
0              No longer used, enter zero
0              No longer used, enter zero
0              No longer used, enter zero
-0.63          Angle of attack for zero Cn for linear Cn curve (deg)
11.40630       Cn slope for zero lift for linear Cn curve (1/rad)
0.9412         Cn at stall value for positive angle of attack for linear Cn curve
-0.7393        Cn at stall value for negative angle of attack for linear Cn curve
2.00           Angle of attack for minimum CD (deg)
0.0282         Minimum CD value
   -180.00   -0.0143    0.0060
   -179.00    0.1057    0.0065
   -178.00    0.2255    0.0080
   -177.00    0.3415    0.0106
   -176.00    0.4415    0.0141
   -175.00    0.5061    0.0187
   -174.00    0.5242    0.0242
   -173.00    0.5068    0.0307
   -172.00    0.4765    0.0382
   -171.00    0.4500    0.0467
   -170.00    0.4333    0.0562
   -169.00    0.4265    0.0665
   -168.00    0.4277    0.0779
   -167.00    0.4346    0.0901
   -166.00    0.4455    0.1032
   -165.00    0.4592    0.1173
   -164.00    0.4745    0.1322
   -163.00    0.4909    0.1479
   -162.00    0.5079    0.1645
   -161.00    0.5250    0.1819
   -160.00    0.5421    0.2000
   -159.00    0.5588    0.2189
   -158.00    0.5752    0.2386
   -157.00    0.5910    0.2590
   -156.00    0.6061    0.2801
   -155.00    0.6205    0.3018
   -154.00    0.6342    0.3242
   -153.00    0.6470    0.3472
   -152.00    0.6589    0.3707
   -151.00    0.6700    0.3949
   -150.00    0.6802    0.4195
   -149.00    0.6894    0.4446
   -148.00    0.6977    0.4702
   -147.00    0.7050    0.4962
   -146.00    0.7113    0.5227
   -145.00    0.7166    0.5494
   -144.00    0.7210    0.5766
   -143.00    0.7244    0.6040
   -142.00    0.7268    0.6316
   -141.00    0.7282    0.6596
   -140.00    0.7286    0.6877
   -139.00    0.7281    0.7159
   -138.00    0.7265    0.7443
   -137.00    0.7241    0.7728
   -136.00    0.7207    0.8014
   -135.00    0.7163    0.8300
   -134.00    0.7111    0.8585
   -133.00    0.7049    0.8871
   -132.00    0.6978    0.9155
   -131.00    0.6899    0.9439
   -130.00    0.6811    0.9720
   -129.00    0.6715    1.0000
   -128.00    0.6610    1.0278
   -127.00    0.6497    1.0554
   -126.00    0.6377    1.0826
   -125.00    0.6249    1.1096
   -124.00    0.6114    1.1362
   -123.00    0.5971    1.1624
   -122.00    0.5822    1.1882
   -121.00    0.5666    1.2136
   -120.00    0.5503    1.2385
   -119.00    0.5334    1.2629
   -118.00    0.5160    1.2867
   -117.00    0.4979    1.3100
   -116.00    0.4793    1.3327
   -115.00    0.4602    1.3548
   -114.00    0.4407    1.3763
   -113.00    0.4206    1.3971
   -112.00    0.4001    1.4172
   -111.00    0.3792    1.4365
   -110.00    0.3579    1.4552
   -109.00    0.3357    1.4730
   -108.00    0.3137    1.4901
   -107.00    0.2914    1.5064
   -106.00    0.2689    1.5219
   -105.00    0.2461    1.5365
   -104.00    0.2231    1.5502
   -103.00    0.1999    1.5631
   -102.00    0.1765    1.5751
   -101.00    0.1530    1.5862
   -100.00    0.1294    1.5964
    -99.00    0.1056    1.6056
    -98.00    0.0818    1.6139
    -97.00    0.0580    1.6212
    -96.00    0.0342    1.6276
    -95.00    0.0103    1.6330
    -94.00   -0.0135    1.6375
    -93.00   -0.0372    1.6409
    -92.00   -0.0608    1.6434
    -91.00   -0.0844    1.6449
    -90.00   -0.1078    1.6454
    -89.00   -0.1310    1.6449
    -88.00   -0.1541    1.6434
    -87.00   -0.1770    1.6409
    -86.00   -0.1996    1.6374
    -85.00   -0.2220    1.6330
    -84.00   -0.2441    1.6276
    -83.00   -0.2659    1.6212
    -82.00   -0.2875    1.6139
    -81.00   -0.3086    1.6056
    -80.00   -0.3295    1.5963
    -79.00   -0.3499    1.5862
    -78.00   -0.3700    1.5751
    -77.00   -0.3897    1.5631
    -76.00   -0.4089    1.5502
    -75.00   -0.4277    1.5364
    -74.00   -0.4460    1.5218
    -73.00   -0.4639    1.5063
    -72.00   -0.4812    1.4901
    -71.00   -0.4981    1.4730
    -70.00   -0.5144    1.4551
    -69.00   -0.5301    1.4364
    -68.00   -0.5453    1.4171
    -67.00   -0.5600    1.3970
    -66.00   -0.5740    1.3762
    -65.00   -0.5875    1.3547
    -64.00   -0.6003    1.3326
    -63.00   -0.6125    1.3099
    -62.00   -0.6241    1.2866
    -61.00   -0.6350    1.2627
    -60.00   -0.6453    1.2383
    -59.00   -0.6549    1.2134
    -58.00   -0.6639    1.1880
    -57.00   -0.6721    1.1622
    -56.00   -0.6797    1.1360
    -55.00   -0.6865    1.1094
    -54.00   -0.6927    1.0824
    -53.00   -0.6981    1.0552
    -52.00   -0.7028    1.0276
    -51.00   -0.7068    0.9998
    -50.00   -0.7100    0.9718
    -49.00   -0.7125    0.9436
    -48.00   -0.7143    0.9152
    -47.00   -0.7153    0.8868
    -46.00   -0.7156    0.8582
    -45.00   -0.7152    0.8296
    -44.00   -0.7140    0.8010
    -43.00   -0.7121    0.7724
    -42.00   -0.7094    0.7439
    -41.00   -0.7060    0.7155
    -40.00   -0.7018    0.6872
    -39.00   -0.6970    0.6590
    -38.00   -0.6914    0.6311
    -37.00   -0.6851    0.6034
    -36.00   -0.6781    0.5759
    -35.00   -0.6704    0.5488
    -34.00   -0.6620    0.5219
    -33.00   -0.6530    0.4954
    -32.00   -0.6433    0.4694
    -31.00   -0.6330    0.4437
    -30.00   -0.6221    0.4185
    -29.00   -0.6107    0.3937
    -28.00   -0.5988    0.3695
    -27.00   -0.5864    0.3458
    -26.00   -0.5736    0.3227
    -25.00   -0.5605    0.3002
    -24.00   -0.5472    0.2783
    -23.00   -0.5339    0.2570
    -22.00   -0.5206    0.2363
    -21.00   -0.5077    0.2164
    -20.00   -0.4953    0.1971
    -19.00   -0.4841    0.1785
    -18.00   -0.4745    0.1606
    -17.00   -0.4673    0.1433
    -16.00   -0.4638    0.1268
    -15.00   -0.4655    0.1109
    -14.00   -0.4750    0.0956
    -13.00   -0.4954    0.0809
    -12.00   -0.5309    0.0668
    -11.00   -0.5856    0.0533
    -10.00   -0.7763    0.0608
     -9.00   -0.8619    0.0488
     -8.00   -0.8463    0.0418
     -7.00   -0.8023    0.0367
     -6.00   -0.7398    0.0336
     -5.00   -0.6388    0.0317
     -4.00   -0.4694    0.0308
     -3.00   -0.3281    0.0301
     -2.00   -0.1915    0.0297
     -1.00   -0.0768    0.0301
      0.00    0.1282    0.0313
      1.00    0.4837    0.0293
      2.00    0.6167    0.0282
      3.00    0.6669    0.0288
      4.00    0.7335    0.0295
      5.00    0.7878    0.0313
      6.00    0.8477    0.0332
      7.00    0.9441    0.0339
      8.00    1.0047    0.0362
      9.00    1.1041    0.0368
     10.00    1.1749    0.0385
     11.00    1.2135    0.0417
     12.00    0.8205    0.0931
     13.00    1.2504    0.0520
     14.00    1.0943    0.0758
     15.00    1.2294    0.0724
     17.00    0.7348    0.2034
     18.00    0.7327    0.2131
     19.00    0.7742    0.2263
     20.00    0.8128    0.2417
     21.00    0.8442    0.2009
     22.00    0.8310    0.2229
     23.00    0.8232    0.2454
     24.00    0.8197    0.2685
     25.00    0.8198    0.2920
     26.00    0.8226    0.3161
     27.00    0.8276    0.3408
     28.00    0.8342    0.3659
     29.00    0.8421    0.3915
     30.00    0.8509    0.4175
     31.00    0.8603    0.4440
     32.00    0.8702    0.4710
     33.00    0.8802    0.4983
     34.00    0.8902    0.5260
     35.00    0.9001    0.5541
     36.00    0.9098    0.5825
     37.00    0.9191    0.6111
     38.00    0.9280    0.6401
     39.00    0.9364    0.6692
     40.00    0.9442    0.6986
     41.00    0.9513    0.7281
     42.00    0.9577    0.7578
     43.00    0.9633    0.7876
     44.00    0.9682    0.8174
     45.00    0.9722    0.8472
     46.00    0.9753    0.8771
     47.00    0.9776    0.9069
     48.00    0.9789    0.9366
     49.00    0.9792    0.9663
     50.00    0.9785    0.9957
     51.00    0.9769    1.0250
     52.00    0.9743    1.0541
     53.00    0.9706    1.0830
     54.00    0.9659    1.1115
     55.00    0.9601    1.1397
     56.00    0.9533    1.1676
     57.00    0.9454    1.1951
     58.00    0.9364    1.2221
     59.00    0.9264    1.2488
     60.00    0.9154    1.2749
     61.00    0.9032    1.3005
     62.00    0.8901    1.3255
     63.00    0.8758    1.3500
     64.00    0.8606    1.3739
     65.00    0.8443    1.3971
     66.00    0.8269    1.4197
     67.00    0.8086    1.4415
     68.00    0.7893    1.4627
     69.00    0.7690    1.4831
     70.00    0.7477    1.5027
     71.00    0.7256    1.5215
     72.00    0.7025    1.5395
     73.00    0.6785    1.5567
     74.00    0.6536    1.5730
     75.00    0.6279    1.5884
     76.00    0.6014    1.6029
     77.00    0.5741    1.6165
     78.00    0.5460    1.6291
     79.00    0.5173    1.6408
     80.00    0.4878    1.6516
     81.00    0.4577    1.6613
     82.00    0.4270    1.6701
     83.00    0.3957    1.6778
     84.00    0.3638    1.6846
     85.00    0.3315    1.6903
     86.00    0.2987    1.6950
     87.00    0.2655    1.6987
     88.00    0.2319    1.7013
     89.00    0.1979    1.7029
     90.00    0.1637    1.7034
     91.00    0.1292    1.7029
     92.00    0.0946    1.7013
     93.00    0.0597    1.6988
     94.00    0.0248    1.6951
     95.00   -0.0102    1.6905
     96.00   -0.0452    1.6848
     97.00   -0.0802    1.6781
     98.00   -0.1150    1.6704
     99.00   -0.1498    1.6616
    100.00   -0.1844    1.6519
    101.00   -0.2187    1.6412
    102.00   -0.2528    1.6296
    103.00   -0.2865    1.6170
    104.00   -0.3199    1.6034
    105.00   -0.3528    1.5889
    106.00   -0.3853    1.5736
    107.00   -0.4172    1.5573
    108.00   -0.4486    1.5402
    109.00   -0.4817    1.5223
    110.00   -0.5118    1.5035
    111.00   -0.5412    1.4839
    112.00   -0.5699    1.4636
    113.00   -0.5978    1.4425
    114.00   -0.6249    1.4207
    115.00   -0.6511    1.3982
    116.00   -0.6764    1.3750
    117.00   -0.7008    1.3512
    118.00   -0.7242    1.3268
    119.00   -0.7466    1.3018
    120.00   -0.7680    1.2763
    121.00   -0.7883    1.2503
    122.00   -0.8075    1.2238
    123.00   -0.8256    1.1968
    124.00   -0.8426    1.1694
    125.00   -0.8583    1.1416
    126.00   -0.8729    1.1135
    127.00   -0.8862    1.0851
    128.00   -0.8983    1.0564
    129.00   -0.9091    1.0274
    130.00   -0.9187    0.9982
    131.00   -0.9270    0.9689
    132.00   -0.9340    0.9394
    133.00   -0.9397    0.9099
    134.00   -0.9441    0.8802
    135.00   -0.9471    0.8506
    136.00   -0.9489    0.8209
    137.00   -0.9494    0.7913
    138.00   -0.9485    0.7618
    139.00   -0.9464    0.7324
    140.00   -0.9429    0.7031
    141.00   -0.9382    0.6741
    142.00   -0.9322    0.6453
    143.00   -0.9249    0.6167
    144.00   -0.9164    0.5884
    145.00   -0.9067    0.5604
    146.00   -0.8958    0.5329
    147.00   -0.8837    0.5057
    148.00   -0.8705    0.4789
    149.00   -0.8562    0.4526
    150.00   -0.8408    0.4268
    151.00   -0.8244    0.4015
    152.00   -0.8070    0.3768
    153.00   -0.7886    0.3526
    154.00   -0.7694    0.3291
    155.00   -0.7494    0.3062
    156.00   -0.7287    0.2840
    157.00   -0.7073    0.2625
    158.00   -0.6853    0.2417
    159.00   -0.6630    0.2216
    160.00   -0.6404    0.2024
    161.00   -0.6177    0.1839
    162.00   -0.5952    0.1662
    163.00   -0.5733    0.1494
    164.00   -0.5523    0.1334
    165.00   -0.5328    0.1183
    166.00   -0.5158    0.1041
    167.00   -0.5023    0.0908
    168.00   -0.4939    0.0784
    169.00   -0.4928    0.0670
    170.00   -0.5014    0.0565
    171.00   -0.5214    0.0469
    172.00   -0.5512    0.0384
    173.00   -0.5812    0.0308
    174.00   -0.5905    0.0243
    175.00   -0.5577    0.0187
    176.00   -0.4795    0.0141
    177.00   -0.3723    0.0106
    178.00   -0.2542    0.0080
    179.00   -0.1343    0.0065
    180.00   -0.0143    0.0060
    180.00   -0.0143    0.0060
