AeroDyn airfoil file Created with QBlade v0.963 64bit on 03.01.2019 at 09:20:33 Compatible with AeroDyn v13.0.
Polar "T1_Re0.260_M0.00_N9.0 360 M" on Foil "T1_Re0.260_M0.00_N9.0" :: generated by QBlade
1              Number of airfoil tables in this file
0              Table ID parameter
19.30          Stall angle (deg)
0              No longer used, enter zero
0              No longer used, enter zero
0              No longer used, enter zero
-2.19          Angle of attack for zero Cn for linear Cn curve (deg)
5.87655        Cn slope for zero lift for linear Cn curve (1/rad)
-0.9416        Cn at stall value for positive angle of attack for linear Cn curve
-0.8097        Cn at stall value for negative angle of attack for linear Cn curve
0.00           Angle of attack for minimum CD (deg)
0.0107         Minimum CD value
   -180.00   -0.0637    0.0060
   -179.00    0.0165    0.0065
   -178.00    0.0914    0.0080
   -177.00    0.1552    0.0106
   -176.00    0.2030    0.0141
   -175.00    0.2346    0.0187
   -174.00    0.2542    0.0242
   -173.00    0.2676    0.0307
   -172.00    0.2791    0.0382
   -171.00    0.2912    0.0467
   -170.00    0.3048    0.0562
   -169.00    0.3200    0.0665
   -168.00    0.3365    0.0779
   -167.00    0.3541    0.0901
   -166.00    0.3723    0.1032
   -165.00    0.3909    0.1173
   -164.00    0.4096    0.1322
   -163.00    0.4282    0.1479
   -162.00    0.4465    0.1645
   -161.00    0.4644    0.1818
   -160.00    0.4818    0.2000
   -159.00    0.4986    0.2189
   -158.00    0.5148    0.2386
   -157.00    0.5301    0.2590
   -156.00    0.5447    0.2801
   -155.00    0.5585    0.3018
   -154.00    0.5715    0.3242
   -153.00    0.5835    0.3472
   -152.00    0.5946    0.3707
   -151.00    0.6049    0.3948
   -150.00    0.6142    0.4195
   -149.00    0.6225    0.4446
   -148.00    0.6300    0.4702
   -147.00    0.6364    0.4962
   -146.00    0.6419    0.5226
   -145.00    0.6465    0.5494
   -144.00    0.6501    0.5765
   -143.00    0.6528    0.6039
   -142.00    0.6546    0.6316
   -141.00    0.6554    0.6595
   -140.00    0.6553    0.6876
   -139.00    0.6543    0.7159
   -138.00    0.6524    0.7443
   -137.00    0.6496    0.7728
   -136.00    0.6460    0.8013
   -135.00    0.6415    0.8299
   -134.00    0.6362    0.8585
   -133.00    0.6301    0.8870
   -132.00    0.6232    0.9154
   -131.00    0.6155    0.9438
   -130.00    0.6070    0.9719
   -129.00    0.5979    0.9999
   -128.00    0.5880    1.0277
   -127.00    0.5774    1.0553
   -126.00    0.5661    1.0825
   -125.00    0.5542    1.1095
   -124.00    0.5417    1.1360
   -123.00    0.5286    1.1623
   -122.00    0.5149    1.1881
   -121.00    0.5006    1.2134
   -120.00    0.4858    1.2383
   -119.00    0.4705    1.2627
   -118.00    0.4547    1.2865
   -117.00    0.4385    1.3098
   -116.00    0.4218    1.3325
   -115.00    0.4048    1.3546
   -114.00    0.3873    1.3760
   -113.00    0.3695    1.3968
   -112.00    0.3482    1.4169
   -111.00    0.3297    1.4362
   -110.00    0.3109    1.4549
   -109.00    0.2918    1.4727
   -108.00    0.2725    1.4898
   -107.00    0.2529    1.5061
   -106.00    0.2331    1.5215
   -105.00    0.2132    1.5361
   -104.00    0.1930    1.5498
   -103.00    0.1728    1.5627
   -102.00    0.1524    1.5747
   -101.00    0.1319    1.5857
   -100.00    0.1113    1.5959
    -99.00    0.0907    1.6051
    -98.00    0.0700    1.6134
    -97.00    0.0494    1.6207
    -96.00    0.0287    1.6270
    -95.00    0.0080    1.6324
    -94.00   -0.0126    1.6368
    -93.00   -0.0332    1.6402
    -92.00   -0.0537    1.6427
    -91.00   -0.0741    1.6441
    -90.00   -0.0944    1.6446
    -89.00   -0.1145    1.6441
    -88.00   -0.1346    1.6425
    -87.00   -0.1544    1.6400
    -86.00   -0.1741    1.6365
    -85.00   -0.1936    1.6320
    -84.00   -0.2129    1.6266
    -83.00   -0.2320    1.6202
    -82.00   -0.2508    1.6128
    -81.00   -0.2694    1.6044
    -80.00   -0.2877    1.5951
    -79.00   -0.3057    1.5849
    -78.00   -0.3234    1.5737
    -77.00   -0.3408    1.5617
    -76.00   -0.3579    1.5487
    -75.00   -0.3747    1.5349
    -74.00   -0.3911    1.5202
    -73.00   -0.4071    1.5047
    -72.00   -0.4227    1.4883
    -71.00   -0.4380    1.4711
    -70.00   -0.4528    1.4532
    -69.00   -0.4673    1.4344
    -68.00   -0.4813    1.4149
    -67.00   -0.4949    1.3947
    -66.00   -0.5080    1.3738
    -65.00   -0.5206    1.3523
    -64.00   -0.5328    1.3300
    -63.00   -0.5445    1.3072
    -62.00   -0.5557    1.2838
    -61.00   -0.5664    1.2597
    -60.00   -0.5767    1.2352
    -59.00   -0.5863    1.2101
    -58.00   -0.5955    1.1846
    -57.00   -0.6042    1.1586
    -56.00   -0.6123    1.1322
    -55.00   -0.6198    1.1054
    -54.00   -0.6269    1.0782
    -53.00   -0.6333    1.0507
    -52.00   -0.6393    1.0229
    -51.00   -0.6447    0.9948
    -50.00   -0.6495    0.9665
    -49.00   -0.6538    0.9380
    -48.00   -0.6576    0.9093
    -47.00   -0.6609    0.8805
    -46.00   -0.6636    0.8516
    -45.00   -0.6658    0.8226
    -44.00   -0.6676    0.7935
    -43.00   -0.6689    0.7645
    -42.00   -0.6697    0.7354
    -41.00   -0.6702    0.7065
    -40.00   -0.6702    0.6776
    -39.00   -0.6700    0.6488
    -38.00   -0.6694    0.6201
    -37.00   -0.6687    0.5916
    -36.00   -0.6678    0.5633
    -35.00   -0.6668    0.5352
    -34.00   -0.6659    0.5073
    -33.00   -0.6651    0.4797
    -32.00   -0.6646    0.4524
    -31.00   -0.6646    0.4254
    -30.00   -0.6652    0.3987
    -29.00   -0.6667    0.3723
    -28.00   -0.6694    0.3462
    -27.00   -0.6735    0.3205
    -26.00   -0.6793    0.2951
    -25.00   -0.6873    0.2702
    -24.00   -0.6978    0.2456
    -23.00   -0.7113    0.2214
    -22.00   -0.7281    0.1976
    -21.00   -0.7484    0.1744
    -20.00   -0.7722    0.1518
    -19.00   -0.7990    0.1301
    -18.00   -0.8277    0.1093
    -17.00   -0.8564    0.0899
    -16.00   -0.8818    0.0722
    -15.00   -0.9001    0.0567
    -14.00   -0.9066    0.0436
    -13.00   -0.8970    0.0333
    -12.00   -0.8687    0.0257
    -11.00   -0.8208    0.0205
    -10.00   -0.9518    0.0245
     -9.90   -0.9385    0.0240
     -9.80   -0.9260    0.0237
     -9.70   -0.9130    0.0235
     -9.60   -0.8991    0.0233
     -9.50   -0.8845    0.0230
     -9.40   -0.8693    0.0228
     -9.30   -0.8555    0.0225
     -9.20   -0.8447    0.0222
     -9.10   -0.8313    0.0219
     -9.00   -0.8168    0.0217
     -8.90   -0.8016    0.0216
     -8.80   -0.7855    0.0214
     -8.70   -0.7726    0.0210
     -8.60   -0.7624    0.0208
     -8.50   -0.7487    0.0206
     -8.40   -0.7336    0.0204
     -8.30   -0.7176    0.0203
     -8.20   -0.7029    0.0199
     -8.10   -0.6868    0.0196
     -8.00   -0.6778    0.0195
     -7.90   -0.6641    0.0193
     -7.80   -0.6498    0.0191
     -7.70   -0.6345    0.0188
     -7.60   -0.6181    0.0186
     -7.50   -0.6008    0.0185
     -7.40   -0.5848    0.0181
     -7.20   -0.5629    0.0178
     -7.10   -0.5477    0.0176
     -7.00   -0.5330    0.0174
     -6.90   -0.5174    0.0172
     -6.80   -0.5015    0.0170
     -6.70   -0.4866    0.0167
     -6.60   -0.4794    0.0166
     -6.50   -0.4668    0.0165
     -6.40   -0.4538    0.0162
     -6.30   -0.4398    0.0161
     -6.10   -0.4112    0.0156
     -6.00   -0.4052    0.0156
     -5.90   -0.3929    0.0155
     -5.80   -0.3808    0.0152
     -5.70   -0.3676    0.0151
     -5.60   -0.3541    0.0149
     -5.50   -0.3476    0.0148
     -5.40   -0.3365    0.0147
     -5.30   -0.3246    0.0145
     -5.20   -0.3123    0.0143
     -5.10   -0.3012    0.0142
     -5.00   -0.2930    0.0141
     -4.90   -0.2821    0.0140
     -4.80   -0.2700    0.0138
     -4.70   -0.2581    0.0136
     -4.60   -0.2498    0.0136
     -4.50   -0.2396    0.0135
     -4.40   -0.2284    0.0133
     -4.30   -0.2163    0.0132
     -4.20   -0.2077    0.0131
     -4.10   -0.1973    0.0130
     -4.00   -0.1865    0.0129
     -3.90   -0.1748    0.0128
     -3.80   -0.1657    0.0127
     -3.70   -0.1557    0.0126
     -3.60   -0.1446    0.0125
     -3.50   -0.1332    0.0124
     -3.40   -0.1240    0.0123
     -3.30   -0.1141    0.0122
     -3.10   -0.0924    0.0120
     -2.90   -0.0727    0.0119
     -2.80   -0.0614    0.0118
     -2.70   -0.0518    0.0117
     -2.60   -0.0419    0.0116
     -2.50   -0.0314    0.0116
     -2.40   -0.0205    0.0115
     -2.30   -0.0110    0.0114
     -2.20   -0.0012    0.0113
     -2.10    0.0095    0.0113
     -2.00    0.0197    0.0112
     -1.90    0.0292    0.0112
     -1.80    0.0396    0.0111
     -1.70    0.0505    0.0111
     -1.60    0.0598    0.0110
     -1.50    0.0698    0.0110
     -1.40    0.0804    0.0109
     -1.30    0.0905    0.0109
     -1.20    0.1002    0.0109
     -1.10    0.1105    0.0108
     -1.00    0.1211    0.0108
     -0.90    0.1309    0.0108
     -0.80    0.1409    0.0108
     -0.70    0.1512    0.0107
     -0.60    0.1619    0.0107
     -0.50    0.1715    0.0107
     -0.40    0.1817    0.0107
     -0.30    0.1922    0.0107
     -0.20    0.2025    0.0107
     -0.10    0.2124    0.0107
      0.00    0.2226    0.0107
      0.10    0.2331    0.0107
      0.20    0.2433    0.0107
      0.30    0.2533    0.0107
      0.40    0.2635    0.0107
      0.50    0.2741    0.0108
      0.60    0.2842    0.0108
      0.70    0.2943    0.0108
      0.80    0.3044    0.0108
      0.90    0.3150    0.0109
      1.00    0.3253    0.0109
      1.10    0.3353    0.0109
      1.20    0.3455    0.0110
      1.30    0.3560    0.0110
      1.40    0.3667    0.0111
      1.50    0.3768    0.0111
      1.60    0.3871    0.0112
      1.70    0.3977    0.0112
      1.80    0.4087    0.0113
      1.90    0.4196    0.0114
      2.00    0.4301    0.0114
      2.10    0.4417    0.0115
      2.20    0.4525    0.0116
      2.30    0.4659    0.0117
      2.40    0.4756    0.0118
      2.50    0.4898    0.0119
      2.60    0.5030    0.0120
      2.70    0.5153    0.0121
      2.80    0.5311    0.0122
      2.90    0.5452    0.0122
      3.00    0.5583    0.0123
      3.10    0.5756    0.0124
      3.20    0.5927    0.0126
      3.30    0.6072    0.0126
      3.40    0.6241    0.0127
      3.50    0.6428    0.0128
      3.60    0.6608    0.0129
      3.70    0.6771    0.0130
      3.80    0.6930    0.0131
      3.90    0.7116    0.0131
      4.00    0.7296    0.0132
      4.10    0.7463    0.0133
      4.20    0.7646    0.0134
      4.30    0.7834    0.0134
      4.40    0.8011    0.0135
      4.50    0.8185    0.0136
      4.60    0.8366    0.0136
      4.70    0.8537    0.0137
      4.80    0.8707    0.0138
      4.90    0.8881    0.0138
      5.00    0.9014    0.0139
      5.10    0.9081    0.0139
      5.20    0.9149    0.0139
      5.30    0.9219    0.0140
      5.40    0.9284    0.0141
      5.50    0.9347    0.0141
      5.60    0.9410    0.0141
      5.70    0.9474    0.0142
      5.80    0.9541    0.0143
      5.90    0.9601    0.0143
      6.00    0.9661    0.0144
      6.10    0.9721    0.0144
      6.20    0.9782    0.0145
      6.30    0.9845    0.0146
      6.40    0.9902    0.0147
      6.50    0.9960    0.0147
      6.60    1.0017    0.0148
      6.70    1.0076    0.0149
      6.80    1.0134    0.0150
      6.90    1.0191    0.0150
      7.00    1.0246    0.0151
      7.10    1.0301    0.0152
      7.20    1.0358    0.0153
      7.30    1.0415    0.0154
      7.40    1.0469    0.0154
      7.50    1.0521    0.0155
      7.70    1.0632    0.0158
      7.80    1.0686    0.0158
      7.90    1.0735    0.0160
      8.00    1.0784    0.0161
      8.10    1.0840    0.0162
      8.20    1.0894    0.0163
      8.30    1.0943    0.0164
      8.40    1.0991    0.0166
      8.50    1.1048    0.0167
      8.60    1.1098    0.0168
      8.70    1.1138    0.0169
      8.80    1.1176    0.0171
      8.90    1.1229    0.0172
      9.00    1.1278    0.0174
      9.10    1.1322    0.0175
      9.20    1.1363    0.0178
      9.30    1.1422    0.0179
      9.40    1.1475    0.0181
      9.50    1.1520    0.0183
      9.60    1.1566    0.0185
      9.70    1.1627    0.0187
      9.80    1.1677    0.0189
      9.90    1.1720    0.0192
     10.00    1.1773    0.0194
     10.10    1.1829    0.0196
     10.20    1.1876    0.0199
     10.30    1.1913    0.0202
     10.40    1.1973    0.0204
     10.50    1.2024    0.0207
     10.60    1.2064    0.0210
     10.70    1.2105    0.0213
     10.80    1.2162    0.0216
     10.90    1.2206    0.0219
     11.00    1.2239    0.0223
     11.10    1.2287    0.0226
     11.20    1.2336    0.0230
     11.30    1.2374    0.0233
     11.40    1.2399    0.0238
     11.50    1.2453    0.0241
     11.60    1.2496    0.0245
     11.70    1.2527    0.0250
     11.80    1.2549    0.0255
     11.90    1.2602    0.0259
     12.00    1.2639    0.0263
     12.10    1.2665    0.0268
     12.20    1.2682    0.0274
     12.30    1.2733    0.0278
     12.40    1.2767    0.0283
     12.50    1.2791    0.0289
     12.60    1.2803    0.0296
     12.70    1.2844    0.0301
     12.80    1.2879    0.0306
     12.90    1.2902    0.0312
     13.00    1.2914    0.0319
     13.10    1.2932    0.0326
     13.20    1.2970    0.0332
     13.30    1.2996    0.0338
     13.40    1.3012    0.0345
     13.50    1.3017    0.0354
     13.60    1.3036    0.0361
     13.70    1.3067    0.0367
     13.80    1.3090    0.0374
     13.90    1.3103    0.0382
     14.00    1.3108    0.0391
     14.10    1.3107    0.0400
     14.20    1.3137    0.0407
     14.30    1.3161    0.0415
     14.40    1.3178    0.0423
     14.50    1.3186    0.0432
     14.60    1.3188    0.0442
     14.70    1.3185    0.0451
     14.80    1.3208    0.0460
     14.90    1.3227    0.0468
     15.00    1.3241    0.0477
     15.10    1.3248    0.0487
     15.20    1.3252    0.0497
     15.30    1.3249    0.0508
     15.40    1.3254    0.0517
     15.50    1.3271    0.0527
     15.60    1.3284    0.0537
     15.70    1.3294    0.0547
     15.80    1.3302    0.0557
     15.90    1.3306    0.0568
     16.00    1.3307    0.0578
     16.10    1.3310    0.0588
     16.20    1.3320    0.0598
     16.30    1.3327    0.0609
     16.40    1.3335    0.0620
     16.50    1.3342    0.0631
     16.60    1.3346    0.0642
     16.70    1.3349    0.0653
     16.80    1.3352    0.0665
     16.90    1.3357    0.0675
     17.00    1.3370    0.0684
     17.10    1.3374    0.0695
     17.20    1.3374    0.0708
     17.30    1.3374    0.0720
     17.40    1.3374    0.0733
     17.50    1.3375    0.0745
     17.60    1.3377    0.0757
     17.70    1.3378    0.0769
     17.80    1.3379    0.0781
     17.90    1.3388    0.0791
     18.00    1.3412    0.0798
     18.10    1.3424    0.0808
     18.20    1.3416    0.0822
     18.30    1.3408    0.0836
     18.40    1.3403    0.0850
     18.50    1.3401    0.0863
     18.60    1.3400    0.0876
     18.70    1.3399    0.0888
     18.80    1.3401    0.0901
     18.90    1.3405    0.0913
     19.00    1.3413    0.0924
     19.10    1.3429    0.0934
     19.20    1.3463    0.0940
     19.30    1.3501    0.0945
     19.40    1.3474    0.0962
     19.50    1.3451    0.0979
     19.60    1.3433    0.0995
     19.70    1.3415    0.1011
     19.80    1.3400    0.1026
     19.90    1.3390    0.1041
     20.00    1.3384    0.1055
     21.00    1.3024    0.1425
     22.00    1.2742    0.1652
     23.00    1.2476    0.1891
     24.00    1.2233    0.2139
     25.00    1.2018    0.2396
     26.00    1.1832    0.2660
     27.00    1.1675    0.2930
     28.00    1.1546    0.3205
     29.00    1.1443    0.3484
     30.00    1.1362    0.3768
     31.00    1.1302    0.4055
     32.00    1.1258    0.4346
     33.00    1.1230    0.4640
     34.00    1.1213    0.4936
     35.00    1.1206    0.5235
     36.00    1.1206    0.5536
     37.00    1.1212    0.5838
     38.00    1.1221    0.6143
     39.00    1.1232    0.6448
     40.00    1.1243    0.6755
     41.00    1.1254    0.7063
     42.00    1.1262    0.7371
     43.00    1.1268    0.7680
     44.00    1.1269    0.7988
     45.00    1.1265    0.8296
     46.00    1.1256    0.8604
     47.00    1.1241    0.8910
     48.00    1.1218    0.9216
     49.00    1.1188    0.9520
     50.00    1.1150    0.9821
     51.00    1.1103    1.0121
     52.00    1.1047    1.0418
     53.00    1.0983    1.0712
     54.00    1.0909    1.1003
     55.00    1.0825    1.1291
     56.00    1.0731    1.1575
     57.00    1.0628    1.1854
     58.00    1.0514    1.2129
     59.00    1.0390    1.2400
     60.00    1.0255    1.2665
     61.00    1.0110    1.2925
     62.00    0.9954    1.3179
     63.00    0.9788    1.3427
     64.00    0.9611    1.3669
     65.00    0.9424    1.3905
     66.00    0.9227    1.4133
     67.00    0.9019    1.4355
     68.00    0.8801    1.4569
     69.00    0.8573    1.4775
     70.00    0.8336    1.4974
     71.00    0.8088    1.5164
     72.00    0.7831    1.5347
     73.00    0.7565    1.5520
     74.00    0.7290    1.5685
     75.00    0.7007    1.5841
     76.00    0.6714    1.5988
     77.00    0.6414    1.6126
     78.00    0.6106    1.6254
     79.00    0.5790    1.6373
     80.00    0.5467    1.6482
     81.00    0.5137    1.6581
     82.00    0.4801    1.6670
     83.00    0.4459    1.6749
     84.00    0.4111    1.6817
     85.00    0.3758    1.6876
     86.00    0.3400    1.6924
     87.00    0.3037    1.6962
     88.00    0.2671    1.6989
     89.00    0.2301    1.7006
     90.00    0.1929    1.7012
     91.00    0.1553    1.7008
     92.00    0.1176    1.6994
     93.00    0.0797    1.6969
     94.00    0.0417    1.6933
     95.00    0.0037    1.6887
     96.00   -0.0344    1.6831
     97.00   -0.0724    1.6765
     98.00   -0.1103    1.6688
     99.00   -0.1480    1.6602
    100.00   -0.1856    1.6505
    101.00   -0.2229    1.6399
    102.00   -0.2599    1.6283
    103.00   -0.2965    1.6158
    104.00   -0.3327    1.6023
    105.00   -0.3685    1.5879
    106.00   -0.4038    1.5725
    107.00   -0.4384    1.5563
    108.00   -0.4725    1.5393
    109.00   -0.5060    1.5214
    110.00   -0.5475    1.5026
    111.00   -0.5793    1.4831
    112.00   -0.6103    1.4628
    113.00   -0.6404    1.4418
    114.00   -0.6697    1.4200
    115.00   -0.6981    1.3975
    116.00   -0.7255    1.3744
    117.00   -0.7519    1.3506
    118.00   -0.7772    1.3263
    119.00   -0.8015    1.3013
    120.00   -0.8246    1.2758
    121.00   -0.8466    1.2498
    122.00   -0.8674    1.2233
    123.00   -0.8871    1.1964
    124.00   -0.9054    1.1690
    125.00   -0.9226    1.1412
    126.00   -0.9384    1.1131
    127.00   -0.9529    1.0847
    128.00   -0.9661    1.0560
    129.00   -0.9780    1.0271
    130.00   -0.9885    0.9980
    131.00   -0.9976    0.9686
    132.00   -1.0054    0.9392
    133.00   -1.0117    0.9096
    134.00   -1.0167    0.8800
    135.00   -1.0203    0.8504
    136.00   -1.0224    0.8207
    137.00   -1.0232    0.7911
    138.00   -1.0226    0.7616
    139.00   -1.0206    0.7322
    140.00   -1.0172    0.7030
    141.00   -1.0125    0.6740
    142.00   -1.0064    0.6451
    143.00   -0.9990    0.6166
    144.00   -0.9903    0.5883
    145.00   -0.9803    0.5603
    146.00   -0.9691    0.5328
    147.00   -0.9566    0.5056
    148.00   -0.9429    0.4788
    149.00   -0.9281    0.4525
    150.00   -0.9121    0.4267
    151.00   -0.8951    0.4014
    152.00   -0.8770    0.3767
    153.00   -0.8580    0.3526
    154.00   -0.8381    0.3291
    155.00   -0.8173    0.3062
    156.00   -0.7957    0.2840
    157.00   -0.7735    0.2625
    158.00   -0.7506    0.2417
    159.00   -0.7274    0.2216
    160.00   -0.7037    0.2023
    161.00   -0.6800    0.1838
    162.00   -0.6562    0.1662
    163.00   -0.6328    0.1493
    164.00   -0.6101    0.1334
    165.00   -0.5884    0.1183
    166.00   -0.5684    0.1041
    167.00   -0.5506    0.0908
    168.00   -0.5358    0.0784
    169.00   -0.5248    0.0670
    170.00   -0.5180    0.0565
    171.00   -0.5147    0.0469
    172.00   -0.5120    0.0384
    173.00   -0.5039    0.0308
    174.00   -0.4820    0.0243
    175.00   -0.4405    0.0187
    176.00   -0.3799    0.0141
    177.00   -0.3063    0.0106
    178.00   -0.2267    0.0080
    179.00   -0.1453    0.0065
    180.00   -0.0637    0.0060
    180.00   -0.0637    0.0060
