AeroDyn airfoil file Created with QBlade v0.963 64bit on 03.01.2019 at 09:20:31 Compatible with AeroDyn v13.0.
Polar "T1_Re0.060_M0.00_N9.0 360 M" on Foil "T1_Re0.060_M0.00_N9.0" :: generated by QBlade
1              Number of airfoil tables in this file
0              Table ID parameter
11.00          Stall angle (deg)
0              No longer used, enter zero
0              No longer used, enter zero
0              No longer used, enter zero
-0.41          Angle of attack for zero Cn for linear Cn curve (deg)
11.52299       Cn slope for zero lift for linear Cn curve (1/rad)
0.5000         Cn at stall value for positive angle of attack for linear Cn curve
-0.7355        Cn at stall value for negative angle of attack for linear Cn curve
-3.00          Angle of attack for minimum CD (deg)
0.0328         Minimum CD value
   -180.00   -0.0253    0.0060
   -179.00    0.0691    0.0065
   -178.00    0.1632    0.0080
   -177.00    0.2543    0.0106
   -176.00    0.3348    0.0141
   -175.00    0.3932    0.0187
   -174.00    0.4222    0.0242
   -173.00    0.4262    0.0307
   -172.00    0.4179    0.0382
   -171.00    0.4084    0.0467
   -170.00    0.4035    0.0562
   -169.00    0.4046    0.0665
   -168.00    0.4111    0.0779
   -167.00    0.4217    0.0901
   -166.00    0.4354    0.1032
   -165.00    0.4511    0.1173
   -164.00    0.4682    0.1322
   -163.00    0.4860    0.1479
   -162.00    0.5043    0.1645
   -161.00    0.5227    0.1818
   -160.00    0.5409    0.2000
   -159.00    0.5588    0.2189
   -158.00    0.5762    0.2386
   -157.00    0.5931    0.2590
   -156.00    0.6093    0.2800
   -155.00    0.6248    0.3018
   -154.00    0.6395    0.3242
   -153.00    0.6534    0.3471
   -152.00    0.6664    0.3707
   -151.00    0.6785    0.3948
   -150.00    0.6897    0.4194
   -149.00    0.6999    0.4446
   -148.00    0.7091    0.4702
   -147.00    0.7174    0.4962
   -146.00    0.7247    0.5226
   -145.00    0.7310    0.5494
   -144.00    0.7362    0.5765
   -143.00    0.7405    0.6039
   -142.00    0.7437    0.6315
   -141.00    0.7459    0.6594
   -140.00    0.7471    0.6875
   -139.00    0.7473    0.7158
   -138.00    0.7465    0.7442
   -137.00    0.7447    0.7727
   -136.00    0.7418    0.8012
   -135.00    0.7381    0.8298
   -134.00    0.7333    0.8584
   -133.00    0.7276    0.8869
   -132.00    0.7209    0.9153
   -131.00    0.7133    0.9436
   -130.00    0.7048    0.9718
   -129.00    0.6954    0.9998
   -128.00    0.6851    1.0276
   -127.00    0.6740    1.0551
   -126.00    0.6620    1.0824
   -125.00    0.6492    1.1093
   -124.00    0.6356    1.1359
   -123.00    0.6212    1.1621
   -122.00    0.6061    1.1879
   -121.00    0.5902    1.2132
   -120.00    0.5737    1.2381
   -119.00    0.5565    1.2625
   -118.00    0.5386    1.2863
   -117.00    0.5201    1.3096
   -116.00    0.5010    1.3323
   -115.00    0.4813    1.3543
   -114.00    0.4611    1.3758
   -113.00    0.4404    1.3965
   -112.00    0.4191    1.4166
   -111.00    0.3975    1.4359
   -110.00    0.3754    1.4545
   -109.00    0.3464    1.4724
   -108.00    0.3234    1.4894
   -107.00    0.3000    1.5057
   -106.00    0.2764    1.5211
   -105.00    0.2524    1.5357
   -104.00    0.2282    1.5494
   -103.00    0.2038    1.5623
   -102.00    0.1792    1.5742
   -101.00    0.1544    1.5853
   -100.00    0.1294    1.5954
    -99.00    0.1044    1.6046
    -98.00    0.0792    1.6129
    -97.00    0.0540    1.6202
    -96.00    0.0288    1.6265
    -95.00    0.0036    1.6319
    -94.00   -0.0216    1.6362
    -93.00   -0.0468    1.6396
    -92.00   -0.0719    1.6421
    -91.00   -0.0968    1.6435
    -90.00   -0.1217    1.6439
    -89.00   -0.1463    1.6434
    -88.00   -0.1708    1.6418
    -87.00   -0.1951    1.6393
    -86.00   -0.2191    1.6358
    -85.00   -0.2429    1.6313
    -84.00   -0.2664    1.6258
    -83.00   -0.2895    1.6193
    -82.00   -0.3124    1.6119
    -81.00   -0.3349    1.6036
    -80.00   -0.3570    1.5942
    -79.00   -0.3788    1.5840
    -78.00   -0.4001    1.5728
    -77.00   -0.4210    1.5608
    -76.00   -0.4414    1.5478
    -75.00   -0.4613    1.5339
    -74.00   -0.4808    1.5192
    -73.00   -0.4998    1.5037
    -72.00   -0.5182    1.4873
    -71.00   -0.5361    1.4701
    -70.00   -0.5534    1.4521
    -69.00   -0.5701    1.4333
    -68.00   -0.5863    1.4138
    -67.00   -0.6018    1.3936
    -66.00   -0.6168    1.3727
    -65.00   -0.6311    1.3511
    -64.00   -0.6448    1.3289
    -63.00   -0.6578    1.3061
    -62.00   -0.6702    1.2826
    -61.00   -0.6819    1.2586
    -60.00   -0.6929    1.2341
    -59.00   -0.7032    1.2090
    -58.00   -0.7129    1.1835
    -57.00   -0.7218    1.1575
    -56.00   -0.7301    1.1311
    -55.00   -0.7376    1.1043
    -54.00   -0.7444    1.0772
    -53.00   -0.7505    1.0498
    -52.00   -0.7559    1.0220
    -51.00   -0.7606    0.9940
    -50.00   -0.7646    0.9658
    -49.00   -0.7678    0.9374
    -48.00   -0.7704    0.9088
    -47.00   -0.7722    0.8801
    -46.00   -0.7733    0.8514
    -45.00   -0.7738    0.8226
    -44.00   -0.7735    0.7937
    -43.00   -0.7726    0.7649
    -42.00   -0.7710    0.7361
    -41.00   -0.7687    0.7074
    -40.00   -0.7658    0.6789
    -39.00   -0.7623    0.6505
    -38.00   -0.7581    0.6222
    -37.00   -0.7534    0.5942
    -36.00   -0.7481    0.5665
    -35.00   -0.7422    0.5390
    -34.00   -0.7358    0.5119
    -33.00   -0.7289    0.4851
    -32.00   -0.7215    0.4588
    -31.00   -0.7136    0.4328
    -30.00   -0.7054    0.4073
    -29.00   -0.6967    0.3823
    -28.00   -0.6877    0.3578
    -27.00   -0.6784    0.3339
    -26.00   -0.6688    0.3105
    -25.00   -0.6590    0.2878
    -24.00   -0.6490    0.2657
    -23.00   -0.6388    0.2443
    -22.00   -0.6286    0.2236
    -21.00   -0.6182    0.2036
    -20.00   -0.6077    0.1844
    -19.00   -0.5971    0.1661
    -18.00   -0.5865    0.1486
    -17.00   -0.5757    0.1319
    -16.00   -0.5647    0.1162
    -15.00   -0.5533    0.1015
    -14.00   -0.5414    0.0878
    -13.00   -0.5285    0.0751
    -12.00   -0.5144    0.0636
    -11.00   -0.4984    0.0532
    -10.00   -0.4799    0.0439
     -9.00   -0.7944    0.0579
     -8.00   -0.8220    0.0476
     -7.00   -0.7896    0.0412
     -6.00   -0.7357    0.0368
     -5.00   -0.6709    0.0340
     -4.00   -0.5498    0.0328
     -3.00   -0.3877    0.0328
     -2.00   -0.2588    0.0330
     -1.00   -0.1457    0.0341
      0.00    0.1026    0.0370
      1.00    0.4995    0.0341
      2.00    0.5123    0.0354
      3.00    0.5542    0.0365
      4.00    0.6278    0.0374
      6.00    0.6765    0.0462
      7.00    0.7587    0.0483
      9.00    0.8741    0.0556
     10.00    0.7443    0.0821
     11.00    1.0836    0.0543
     15.00    0.3632    0.1358
     16.00    0.4032    0.1469
     17.00    0.4050    0.1533
     18.00    0.4446    0.1657
     19.00    0.4465    0.1724
     20.00    0.4687    0.1821
     21.00    0.5248    0.2264
     22.00    0.5570    0.2457
     23.00    0.5863    0.2659
     24.00    0.6135    0.2869
     25.00    0.6388    0.3087
     26.00    0.6627    0.3313
     27.00    0.6853    0.3546
     28.00    0.7068    0.3785
     29.00    0.7272    0.4030
     30.00    0.7466    0.4281
     31.00    0.7650    0.4538
     32.00    0.7825    0.4800
     33.00    0.7991    0.5067
     34.00    0.8148    0.5338
     35.00    0.8296    0.5613
     36.00    0.8434    0.5892
     37.00    0.8563    0.6174
     38.00    0.8683    0.6459
     39.00    0.8794    0.6747
     40.00    0.8895    0.7037
     41.00    0.8986    0.7329
     42.00    0.9068    0.7623
     43.00    0.9139    0.7918
     44.00    0.9201    0.8214
     45.00    0.9253    0.8510
     46.00    0.9294    0.8806
     47.00    0.9325    0.9102
     48.00    0.9346    0.9398
     49.00    0.9357    0.9692
     50.00    0.9357    0.9986
     51.00    0.9347    1.0277
     52.00    0.9325    1.0567
     53.00    0.9294    1.0854
     54.00    0.9252    1.1138
     55.00    0.9199    1.1419
     56.00    0.9135    1.1697
     57.00    0.9061    1.1970
     58.00    0.8976    1.2240
     59.00    0.8881    1.2505
     60.00    0.8776    1.2766
     61.00    0.8660    1.3021
     62.00    0.8533    1.3271
     63.00    0.8396    1.3515
     64.00    0.8250    1.3753
     65.00    0.8093    1.3984
     66.00    0.7926    1.4209
     67.00    0.7750    1.4427
     68.00    0.7564    1.4638
     69.00    0.7369    1.4841
     70.00    0.7164    1.5037
     71.00    0.6951    1.5225
     72.00    0.6729    1.5405
     73.00    0.6498    1.5576
     74.00    0.6259    1.5738
     75.00    0.6012    1.5892
     76.00    0.5757    1.6037
     77.00    0.5495    1.6172
     78.00    0.5225    1.6298
     79.00    0.4949    1.6415
     80.00    0.4666    1.6522
     81.00    0.4377    1.6619
     82.00    0.4082    1.6707
     83.00    0.3781    1.6784
     84.00    0.3476    1.6851
     85.00    0.3165    1.6908
     86.00    0.2850    1.6955
     87.00    0.2531    1.6991
     88.00    0.2209    1.7017
     89.00    0.1883    1.7033
     90.00    0.1555    1.7038
     91.00    0.1224    1.7033
     92.00    0.0891    1.7017
     93.00    0.0557    1.6991
     94.00    0.0221    1.6955
     95.00   -0.0115    1.6908
     96.00   -0.0451    1.6851
     97.00   -0.0787    1.6784
     98.00   -0.1123    1.6706
     99.00   -0.1457    1.6619
    100.00   -0.1790    1.6522
    101.00   -0.2120    1.6415
    102.00   -0.2448    1.6298
    103.00   -0.2773    1.6172
    104.00   -0.3095    1.6036
    105.00   -0.3413    1.5891
    106.00   -0.3726    1.5738
    107.00   -0.4035    1.5575
    108.00   -0.4338    1.5404
    109.00   -0.4640    1.5224
    110.00   -0.4932    1.5036
    111.00   -0.5218    1.4841
    112.00   -0.5497    1.4637
    113.00   -0.5768    1.4426
    114.00   -0.6032    1.4208
    115.00   -0.6288    1.3983
    116.00   -0.6535    1.3751
    117.00   -0.6774    1.3513
    118.00   -0.7003    1.3269
    119.00   -0.7223    1.3019
    120.00   -0.7433    1.2764
    121.00   -0.7634    1.2504
    122.00   -0.7824    1.2238
    123.00   -0.8003    1.1969
    124.00   -0.8171    1.1695
    125.00   -0.8328    1.1417
    126.00   -0.8474    1.1136
    127.00   -0.8608    1.0851
    128.00   -0.8731    1.0564
    129.00   -0.8841    1.0275
    130.00   -0.8940    0.9983
    131.00   -0.9026    0.9690
    132.00   -0.9100    0.9395
    133.00   -0.9161    0.9099
    134.00   -0.9210    0.8803
    135.00   -0.9247    0.8506
    136.00   -0.9270    0.8210
    137.00   -0.9281    0.7914
    138.00   -0.9280    0.7618
    139.00   -0.9266    0.7324
    140.00   -0.9239    0.7032
    141.00   -0.9200    0.6741
    142.00   -0.9149    0.6453
    143.00   -0.9085    0.6167
    144.00   -0.9009    0.5884
    145.00   -0.8921    0.5605
    146.00   -0.8822    0.5329
    147.00   -0.8711    0.5057
    148.00   -0.8589    0.4789
    149.00   -0.8456    0.4526
    150.00   -0.8313    0.4268
    151.00   -0.8159    0.4015
    152.00   -0.7996    0.3768
    153.00   -0.7823    0.3526
    154.00   -0.7642    0.3291
    155.00   -0.7452    0.3062
    156.00   -0.7255    0.2840
    157.00   -0.7051    0.2625
    158.00   -0.6841    0.2417
    159.00   -0.6628    0.2216
    160.00   -0.6411    0.2024
    161.00   -0.6193    0.1839
    162.00   -0.5976    0.1662
    163.00   -0.5764    0.1494
    164.00   -0.5560    0.1334
    165.00   -0.5370    0.1183
    166.00   -0.5201    0.1041
    167.00   -0.5063    0.0908
    168.00   -0.4968    0.0784
    169.00   -0.4930    0.0670
    170.00   -0.4961    0.0565
    171.00   -0.5060    0.0469
    172.00   -0.5188    0.0384
    173.00   -0.5250    0.0308
    174.00   -0.5108    0.0243
    175.00   -0.4665    0.0187
    176.00   -0.3949    0.0141
    177.00   -0.3074    0.0106
    178.00   -0.2140    0.0080
    179.00   -0.1197    0.0065
    180.00   -0.0253    0.0060
    180.00   -0.0253    0.0060
