AeroDyn airfoil file Created with QBlade v0.963 64bit on 03.01.2019 at 09:20:32 Compatible with AeroDyn v13.0.
Polar "T1_Re0.165_M0.00_N9.0 360 M" on Foil "T1_Re0.165_M0.00_N9.0" :: generated by QBlade
1              Number of airfoil tables in this file
0              Table ID parameter
18.60          Stall angle (deg)
0              No longer used, enter zero
0              No longer used, enter zero
0              No longer used, enter zero
-2.07          Angle of attack for zero Cn for linear Cn curve (deg)
6.22908        Cn slope for zero lift for linear Cn curve (1/rad)
0.9828         Cn at stall value for positive angle of attack for linear Cn curve
-0.9520        Cn at stall value for negative angle of attack for linear Cn curve
-0.40          Angle of attack for minimum CD (deg)
0.0135         Minimum CD value
   -180.00   -0.0603    0.0060
   -179.00    0.0234    0.0065
   -178.00    0.1047    0.0080
   -177.00    0.1783    0.0106
   -176.00    0.2367    0.0141
   -175.00    0.2752    0.0187
   -174.00    0.2957    0.0242
   -173.00    0.3049    0.0307
   -172.00    0.3102    0.0382
   -171.00    0.3161    0.0467
   -170.00    0.3243    0.0562
   -169.00    0.3354    0.0665
   -168.00    0.3488    0.0779
   -167.00    0.3640    0.0901
   -166.00    0.3806    0.1032
   -165.00    0.3980    0.1173
   -164.00    0.4158    0.1322
   -163.00    0.4337    0.1479
   -162.00    0.4515    0.1645
   -161.00    0.4691    0.1819
   -160.00    0.4863    0.2000
   -159.00    0.5029    0.2189
   -158.00    0.5189    0.2386
   -157.00    0.5342    0.2590
   -156.00    0.5487    0.2801
   -155.00    0.5625    0.3018
   -154.00    0.5754    0.3242
   -153.00    0.5875    0.3472
   -152.00    0.5986    0.3707
   -151.00    0.6089    0.3949
   -150.00    0.6182    0.4195
   -149.00    0.6266    0.4446
   -148.00    0.6341    0.4702
   -147.00    0.6406    0.4962
   -146.00    0.6462    0.5227
   -145.00    0.6508    0.5494
   -144.00    0.6545    0.5766
   -143.00    0.6572    0.6040
   -142.00    0.6590    0.6316
   -141.00    0.6598    0.6596
   -140.00    0.6598    0.6877
   -139.00    0.6588    0.7159
   -138.00    0.6569    0.7443
   -137.00    0.6542    0.7728
   -136.00    0.6506    0.8014
   -135.00    0.6461    0.8300
   -134.00    0.6408    0.8585
   -133.00    0.6347    0.8871
   -132.00    0.6278    0.9155
   -131.00    0.6200    0.9439
   -130.00    0.6116    0.9720
   -129.00    0.6024    1.0000
   -128.00    0.5924    1.0278
   -127.00    0.5818    1.0554
   -126.00    0.5705    1.0826
   -125.00    0.5586    1.1096
   -124.00    0.5460    1.1362
   -123.00    0.5328    1.1624
   -122.00    0.5190    1.1882
   -121.00    0.5047    1.2136
   -120.00    0.4898    1.2385
   -119.00    0.4744    1.2629
   -118.00    0.4585    1.2867
   -117.00    0.4422    1.3100
   -116.00    0.4254    1.3327
   -115.00    0.4082    1.3548
   -114.00    0.3906    1.3763
   -113.00    0.3726    1.3971
   -112.00    0.3543    1.4172
   -111.00    0.3350    1.4365
   -110.00    0.3161    1.4552
   -109.00    0.2969    1.4730
   -108.00    0.2774    1.4901
   -107.00    0.2578    1.5064
   -106.00    0.2379    1.5219
   -105.00    0.2178    1.5365
   -104.00    0.1976    1.5503
   -103.00    0.1772    1.5631
   -102.00    0.1567    1.5751
   -101.00    0.1361    1.5862
   -100.00    0.1155    1.5964
    -99.00    0.0947    1.6056
    -98.00    0.0740    1.6139
    -97.00    0.0532    1.6212
    -96.00    0.0324    1.6276
    -95.00    0.0116    1.6330
    -94.00   -0.0091    1.6375
    -93.00   -0.0297    1.6409
    -92.00   -0.0503    1.6434
    -91.00   -0.0708    1.6449
    -90.00   -0.0912    1.6454
    -89.00   -0.1114    1.6449
    -88.00   -0.1315    1.6434
    -87.00   -0.1514    1.6409
    -86.00   -0.1711    1.6375
    -85.00   -0.1906    1.6330
    -84.00   -0.2099    1.6276
    -83.00   -0.2290    1.6212
    -82.00   -0.2478    1.6139
    -81.00   -0.2664    1.6056
    -80.00   -0.2846    1.5964
    -79.00   -0.3026    1.5862
    -78.00   -0.3202    1.5751
    -77.00   -0.3376    1.5631
    -76.00   -0.3545    1.5502
    -75.00   -0.3712    1.5365
    -74.00   -0.3874    1.5218
    -73.00   -0.4032    1.5064
    -72.00   -0.4187    1.4901
    -71.00   -0.4337    1.4730
    -70.00   -0.4483    1.4551
    -69.00   -0.4625    1.4365
    -68.00   -0.4762    1.4171
    -67.00   -0.4894    1.3970
    -66.00   -0.5022    1.3762
    -65.00   -0.5144    1.3548
    -64.00   -0.5262    1.3327
    -63.00   -0.5374    1.3100
    -62.00   -0.5481    1.2866
    -61.00   -0.5582    1.2628
    -60.00   -0.5678    1.2384
    -59.00   -0.5768    1.2135
    -58.00   -0.5852    1.1881
    -57.00   -0.5931    1.1623
    -56.00   -0.6003    1.1361
    -55.00   -0.6070    1.1095
    -54.00   -0.6130    1.0825
    -53.00   -0.6184    1.0552
    -52.00   -0.6231    1.0277
    -51.00   -0.6272    0.9999
    -50.00   -0.6306    0.9719
    -49.00   -0.6334    0.9437
    -48.00   -0.6355    0.9153
    -47.00   -0.6370    0.8869
    -46.00   -0.6377    0.8583
    -45.00   -0.6378    0.8297
    -44.00   -0.6371    0.8011
    -43.00   -0.6358    0.7726
    -42.00   -0.6338    0.7441
    -41.00   -0.6311    0.7156
    -40.00   -0.6276    0.6873
    -39.00   -0.6235    0.6592
    -38.00   -0.6187    0.6313
    -37.00   -0.6132    0.6035
    -36.00   -0.6069    0.5761
    -35.00   -0.6000    0.5489
    -34.00   -0.5924    0.5221
    -33.00   -0.5842    0.4956
    -32.00   -0.5752    0.4695
    -31.00   -0.5657    0.4439
    -30.00   -0.5555    0.4186
    -29.00   -0.5447    0.3939
    -28.00   -0.5334    0.3696
    -27.00   -0.5216    0.3459
    -26.00   -0.5094    0.3228
    -25.00   -0.4968    0.3002
    -24.00   -0.4840    0.2782
    -23.00   -0.4712    0.2567
    -22.00   -0.4586    0.2359
    -21.00   -0.4466    0.2157
    -20.00   -0.4358    0.1961
    -19.00   -0.4270    0.1769
    -18.00   -0.4215    0.1582
    -17.00   -0.4216    0.1398
    -16.00   -0.4307    0.1215
    -15.00   -0.4544    0.1029
    -14.00   -0.5005    0.0836
    -13.00   -0.5763    0.0635
    -12.00   -0.6763    0.0436
    -11.00   -0.7626    0.0272
    -10.00   -0.9978    0.0303
     -9.90   -0.9928    0.0301
     -9.80   -0.9880    0.0298
     -9.70   -0.9834    0.0296
     -9.60   -0.9790    0.0293
     -9.50   -0.9748    0.0291
     -9.40   -0.9709    0.0288
     -9.30   -0.9667    0.0285
     -9.20   -0.9599    0.0281
     -9.10   -0.9501    0.0279
     -9.00   -0.9345    0.0277
     -8.90   -0.9192    0.0275
     -8.80   -0.9047    0.0272
     -8.70   -0.8900    0.0269
     -8.60   -0.8742    0.0265
     -8.50   -0.8595    0.0263
     -8.40   -0.8451    0.0261
     -8.30   -0.8298    0.0258
     -8.20   -0.8140    0.0255
     -8.10   -0.8000    0.0252
     -8.00   -0.7863    0.0250
     -7.90   -0.7711    0.0248
     -7.80   -0.7549    0.0246
     -7.70   -0.7381    0.0243
     -7.60   -0.7274    0.0241
     -7.50   -0.7129    0.0239
     -7.40   -0.6969    0.0237
     -7.30   -0.6802    0.0234
     -7.20   -0.6660    0.0232
     -7.10   -0.6546    0.0231
     -7.00   -0.6397    0.0228
     -6.90   -0.6234    0.0226
     -6.80   -0.6060    0.0224
     -6.70   -0.5918    0.0221
     -6.60   -0.5820    0.0220
     -6.50   -0.5669    0.0218
     -6.40   -0.5503    0.0216
     -6.30   -0.5330    0.0213
     -6.20   -0.5148    0.0212
     -6.10   -0.5087    0.0210
     -6.00   -0.4943    0.0208
     -5.90   -0.4777    0.0206
     -5.80   -0.4607    0.0203
     -5.70   -0.4425    0.0202
     -5.60   -0.4241    0.0199
     -5.50   -0.4200    0.0198
     -5.40   -0.4045    0.0197
     -5.30   -0.3880    0.0194
     -5.20   -0.3707    0.0192
     -5.10   -0.3539    0.0190
     -5.00   -0.3366    0.0188
     -4.90   -0.3331    0.0187
     -4.80   -0.3190    0.0185
     -4.70   -0.3036    0.0183
     -4.60   -0.2879    0.0181
     -4.50   -0.2716    0.0178
     -4.40   -0.2658    0.0178
     -4.30   -0.2534    0.0176
     -4.20   -0.2395    0.0174
     -4.10   -0.2244    0.0172
     -4.00   -0.2094    0.0169
     -3.90   -0.2031    0.0169
     -3.80   -0.1918    0.0167
     -3.70   -0.1782    0.0165
     -3.60   -0.1643    0.0163
     -3.50   -0.1514    0.0161
     -3.40   -0.1450    0.0160
     -3.30   -0.1329    0.0159
     -3.20   -0.1200    0.0157
     -3.10   -0.1063    0.0155
     -3.00   -0.0994    0.0154
     -2.90   -0.0887    0.0153
     -2.80   -0.0763    0.0151
     -2.70   -0.0634    0.0149
     -2.60   -0.0555    0.0149
     -2.50   -0.0455    0.0148
     -2.40   -0.0336    0.0146
     -2.30   -0.0209    0.0145
     -2.20   -0.0131    0.0144
     -2.10   -0.0031    0.0143
     -2.00    0.0087    0.0142
     -1.90    0.0212    0.0141
     -1.80    0.0284    0.0141
     -1.70    0.0389    0.0140
     -1.60    0.0505    0.0139
     -1.50    0.0613    0.0138
     -1.40    0.0699    0.0138
     -1.30    0.0806    0.0137
     -1.20    0.0923    0.0137
     -1.10    0.1019    0.0136
     -1.00    0.1113    0.0136
     -0.90    0.1222    0.0136
     -0.80    0.1341    0.0135
     -0.70    0.1427    0.0135
     -0.60    0.1528    0.0135
     -0.50    0.1639    0.0135
     -0.40    0.1755    0.0135
     -0.30    0.1842    0.0135
     -0.20    0.1943    0.0135
     -0.10    0.2057    0.0135
      0.00    0.2167    0.0135
      0.10    0.2256    0.0136
      0.20    0.2364    0.0136
      0.30    0.2472    0.0136
      0.40    0.2588    0.0137
      0.50    0.2677    0.0137
      0.60    0.2792    0.0138
      0.70    0.2905    0.0138
      0.80    0.3024    0.0139
      0.90    0.3120    0.0140
      1.00    0.3244    0.0141
      1.10    0.3360    0.0141
      1.20    0.3500    0.0142
      1.30    0.3595    0.0143
      1.40    0.3746    0.0144
      1.50    0.3870    0.0145
      1.60    0.4032    0.0146
      1.70    0.4174    0.0147
      1.80    0.4301    0.0148
      1.90    0.4489    0.0149
      2.00    0.4663    0.0150
      2.10    0.4797    0.0151
      2.20    0.4994    0.0152
      2.30    0.5188    0.0153
      2.40    0.5344    0.0154
      2.50    0.5547    0.0155
      2.60    0.5741    0.0156
      2.70    0.5897    0.0156
      2.80    0.6104    0.0157
      2.90    0.6292    0.0158
      3.00    0.6454    0.0158
      3.10    0.6657    0.0159
      3.30    0.7023    0.0160
      3.40    0.7228    0.0160
      3.50    0.7425    0.0161
      3.60    0.7627    0.0161
      3.70    0.7826    0.0161
      3.80    0.8029    0.0161
      3.90    0.8179    0.0162
      4.00    0.8256    0.0162
      4.10    0.8319    0.0162
      4.20    0.8390    0.0163
      4.30    0.8466    0.0163
      4.40    0.8549    0.0163
      4.50    0.8617    0.0164
      4.60    0.8680    0.0164
      4.70    0.8749    0.0165
      4.80    0.8825    0.0165
      4.90    0.8912    0.0166
      5.00    0.8967    0.0167
      5.10    0.9029    0.0167
      5.20    0.9098    0.0168
      5.30    0.9176    0.0169
      5.40    0.9257    0.0170
      5.50    0.9308    0.0170
      5.60    0.9371    0.0171
      5.70    0.9441    0.0172
      5.80    0.9523    0.0172
      5.90    0.9587    0.0173
      6.00    0.9641    0.0174
      6.10    0.9706    0.0175
      6.20    0.9779    0.0176
      6.30    0.9868    0.0177
      6.40    0.9910    0.0178
      6.50    0.9967    0.0179
      6.60    1.0034    0.0179
      6.70    1.0114    0.0180
      6.80    1.0175    0.0181
      6.90    1.0225    0.0182
      7.00    1.0287    0.0183
      7.10    1.0359    0.0184
      7.20    1.0435    0.0185
      7.30    1.0477    0.0186
      7.40    1.0533    0.0187
      7.50    1.0600    0.0188
      7.60    1.0685    0.0190
      7.70    1.0721    0.0191
      7.80    1.0773    0.0192
      7.90    1.0834    0.0193
      8.00    1.0916    0.0194
      8.10    1.0955    0.0195
      8.20    1.1003    0.0196
      8.30    1.1062    0.0197
      8.40    1.1142    0.0199
      8.50    1.1181    0.0200
      8.60    1.1229    0.0201
      8.70    1.1287    0.0203
      8.80    1.1362    0.0204
      8.90    1.1397    0.0206
      9.00    1.1444    0.0207
      9.10    1.1501    0.0209
      9.20    1.1565    0.0211
      9.30    1.1600    0.0212
      9.40    1.1642    0.0214
      9.50    1.1694    0.0216
      9.60    1.1740    0.0218
      9.70    1.1765    0.0220
      9.80    1.1800    0.0221
      9.90    1.1849    0.0224
     10.00    1.1887    0.0226
     10.10    1.1916    0.0228
     10.20    1.1953    0.0230
     10.30    1.2006    0.0233
     10.40    1.2034    0.0236
     10.50    1.2066    0.0238
     10.60    1.2105    0.0241
     10.70    1.2154    0.0244
     10.80    1.2181    0.0247
     10.90    1.2213    0.0250
     11.00    1.2251    0.0253
     11.10    1.2290    0.0257
     11.20    1.2317    0.0260
     11.30    1.2348    0.0264
     11.40    1.2386    0.0268
     11.50    1.2418    0.0272
     11.60    1.2444    0.0276
     11.70    1.2473    0.0280
     11.80    1.2511    0.0284
     11.90    1.2536    0.0289
     12.00    1.2560    0.0293
     12.10    1.2586    0.0298
     12.20    1.2622    0.0302
     12.30    1.2643    0.0308
     12.40    1.2665    0.0313
     12.50    1.2689    0.0318
     12.60    1.2721    0.0323
     12.70    1.2742    0.0329
     12.80    1.2760    0.0335
     12.90    1.2780    0.0341
     13.00    1.2807    0.0346
     13.10    1.2835    0.0352
     13.20    1.2847    0.0359
     13.30    1.2865    0.0365
     13.40    1.2885    0.0372
     13.50    1.2918    0.0377
     13.60    1.2933    0.0385
     13.70    1.2944    0.0392
     13.80    1.2960    0.0399
     13.90    1.2979    0.0406
     14.00    1.3014    0.0412
     14.10    1.3028    0.0419
     14.20    1.3033    0.0428
     14.30    1.3045    0.0436
     14.40    1.3060    0.0443
     14.50    1.3085    0.0450
     14.60    1.3124    0.0456
     14.70    1.3118    0.0466
     14.80    1.3122    0.0475
     14.90    1.3134    0.0483
     15.00    1.3151    0.0491
     15.10    1.3181    0.0498
     15.20    1.3235    0.0502
     15.30    1.3222    0.0514
     15.40    1.3220    0.0524
     15.50    1.3227    0.0533
     15.60    1.3240    0.0542
     15.70    1.3261    0.0550
     15.80    1.3303    0.0556
     15.90    1.3345    0.0562
     16.00    1.3323    0.0574
     16.10    1.3313    0.0586
     16.20    1.3312    0.0597
     16.30    1.3319    0.0607
     16.40    1.3338    0.0615
     16.50    1.3370    0.0622
     16.60    1.3455    0.0624
     16.70    1.3440    0.0636
     16.80    1.3413    0.0651
     16.90    1.3398    0.0664
     17.00    1.3392    0.0676
     17.10    1.3396    0.0686
     17.20    1.3409    0.0696
     17.30    1.3436    0.0704
     17.40    1.3483    0.0709
     17.50    1.3599    0.0707
     17.60    1.3560    0.0723
     17.70    1.3513    0.0740
     17.80    1.3477    0.0757
     17.90    1.3449    0.0772
     18.00    1.3430    0.0786
     18.10    1.3422    0.0799
     18.20    1.3427    0.0810
     18.30    1.3449    0.0819
     18.40    1.3497    0.0825
     18.50    1.3586    0.0824
     18.60    1.3624    0.0831
     18.70    1.3557    0.0853
     18.80    1.3492    0.0874
     18.90    1.3431    0.0894
     19.00    1.3379    0.0914
     19.10    1.3334    0.0933
     19.20    1.3298    0.0951
     19.30    1.3270    0.0967
     19.40    1.3254    0.0982
     19.50    1.3255    0.0995
     19.60    1.3279    0.1004
     19.70    1.3333    0.1008
     19.80    1.3432    0.1006
     19.90    1.3537    0.1002
     20.00    1.3436    0.1030
     21.00    1.2087    0.1555
     22.00    1.1558    0.1815
     23.00    1.1117    0.2081
     24.00    1.0763    0.2350
     25.00    1.0488    0.2622
     26.00    1.0284    0.2894
     27.00    1.0138    0.3169
     28.00    1.0041    0.3445
     29.00    0.9985    0.3723
     30.00    0.9960    0.4004
     31.00    0.9961    0.4286
     32.00    0.9981    0.4570
     33.00    1.0016    0.4857
     34.00    1.0063    0.5146
     35.00    1.0116    0.5437
     36.00    1.0175    0.5730
     37.00    1.0236    0.6025
     38.00    1.0298    0.6321
     39.00    1.0359    0.6620
     40.00    1.0417    0.6919
     41.00    1.0471    0.7220
     42.00    1.0520    0.7521
     43.00    1.0563    0.7823
     44.00    1.0600    0.8125
     45.00    1.0630    0.8427
     46.00    1.0652    0.8729
     47.00    1.0665    0.9030
     48.00    1.0669    0.9330
     49.00    1.0664    0.9629
     50.00    1.0650    0.9926
     51.00    1.0625    1.0221
     52.00    1.0591    1.0513
     53.00    1.0546    1.0803
     54.00    1.0490    1.1091
     55.00    1.0424    1.1374
     56.00    1.0346    1.1654
     57.00    1.0258    1.1931
     58.00    1.0159    1.2202
     59.00    1.0048    1.2470
     60.00    0.9926    1.2732
     61.00    0.9794    1.2989
     62.00    0.9650    1.3240
     63.00    0.9495    1.3486
     64.00    0.9329    1.3725
     65.00    0.9152    1.3958
     66.00    0.8964    1.4185
     67.00    0.8765    1.4404
     68.00    0.8556    1.4616
     69.00    0.8337    1.4820
     70.00    0.8108    1.5017
     71.00    0.7868    1.5206
     72.00    0.7619    1.5386
     73.00    0.7360    1.5558
     74.00    0.7092    1.5722
     75.00    0.6815    1.5876
     76.00    0.6529    1.6022
     77.00    0.6235    1.6158
     78.00    0.5933    1.6285
     79.00    0.5623    1.6402
     80.00    0.5306    1.6510
     81.00    0.4982    1.6608
     82.00    0.4651    1.6696
     83.00    0.4314    1.6773
     84.00    0.3971    1.6841
     85.00    0.3623    1.6899
     86.00    0.3270    1.6946
     87.00    0.2913    1.6983
     88.00    0.2551    1.7009
     89.00    0.2186    1.7025
     90.00    0.1818    1.7031
     91.00    0.1447    1.7026
     92.00    0.1074    1.7010
     93.00    0.0699    1.6985
     94.00    0.0323    1.6949
     95.00   -0.0053    1.6902
     96.00   -0.0430    1.6845
     97.00   -0.0806    1.6778
     98.00   -0.1181    1.6701
     99.00   -0.1555    1.6614
    100.00   -0.1927    1.6517
    101.00   -0.2297    1.6410
    102.00   -0.2663    1.6294
    103.00   -0.3026    1.6168
    104.00   -0.3385    1.6032
    105.00   -0.3739    1.5888
    106.00   -0.4089    1.5734
    107.00   -0.4432    1.5572
    108.00   -0.4770    1.5401
    109.00   -0.5101    1.5221
    110.00   -0.5455    1.5034
    111.00   -0.5771    1.4838
    112.00   -0.6080    1.4635
    113.00   -0.6380    1.4424
    114.00   -0.6671    1.4206
    115.00   -0.6954    1.3981
    116.00   -0.7226    1.3749
    117.00   -0.7489    1.3511
    118.00   -0.7741    1.3267
    119.00   -0.7983    1.3018
    120.00   -0.8213    1.2762
    121.00   -0.8432    1.2502
    122.00   -0.8639    1.2237
    123.00   -0.8834    1.1967
    124.00   -0.9017    1.1693
    125.00   -0.9187    1.1416
    126.00   -0.9345    1.1135
    127.00   -0.9489    1.0850
    128.00   -0.9620    1.0563
    129.00   -0.9738    1.0274
    130.00   -0.9842    0.9982
    131.00   -0.9933    0.9689
    132.00   -1.0010    0.9394
    133.00   -1.0073    0.9098
    134.00   -1.0122    0.8802
    135.00   -1.0157    0.8506
    136.00   -1.0179    0.8209
    137.00   -1.0186    0.7913
    138.00   -1.0180    0.7618
    139.00   -1.0159    0.7324
    140.00   -1.0125    0.7031
    141.00   -1.0078    0.6741
    142.00   -1.0017    0.6452
    143.00   -0.9943    0.6167
    144.00   -0.9856    0.5884
    145.00   -0.9756    0.5604
    146.00   -0.9643    0.5328
    147.00   -0.9519    0.5056
    148.00   -0.9382    0.4789
    149.00   -0.9234    0.4526
    150.00   -0.9074    0.4268
    151.00   -0.8905    0.4015
    152.00   -0.8724    0.3768
    153.00   -0.8534    0.3526
    154.00   -0.8336    0.3291
    155.00   -0.8128    0.3062
    156.00   -0.7914    0.2840
    157.00   -0.7692    0.2625
    158.00   -0.7465    0.2417
    159.00   -0.7234    0.2216
    160.00   -0.7000    0.2024
    161.00   -0.6765    0.1839
    162.00   -0.6531    0.1662
    163.00   -0.6302    0.1494
    164.00   -0.6081    0.1334
    165.00   -0.5874    0.1183
    166.00   -0.5686    0.1041
    167.00   -0.5527    0.0908
    168.00   -0.5405    0.0784
    169.00   -0.5330    0.0670
    170.00   -0.5307    0.0565
    171.00   -0.5325    0.0469
    172.00   -0.5343    0.0384
    173.00   -0.5280    0.0308
    174.00   -0.5039    0.0243
    175.00   -0.4567    0.0187
    176.00   -0.3898    0.0141
    177.00   -0.3112    0.0106
    178.00   -0.2282    0.0080
    179.00   -0.1443    0.0065
    180.00   -0.0603    0.0060
    180.00   -0.0603    0.0060
