AeroDyn airfoil file Created with QBlade v0.963 64bit on 03.01.2019 at 09:20:34 Compatible with AeroDyn v13.0.
Polar "T1_Re0.470_M0.00_N9.0 360 M" on Foil "T1_Re0.470_M0.00_N9.0" :: generated by QBlade
1              Number of airfoil tables in this file
0              Table ID parameter
16.50          Stall angle (deg)
0              No longer used, enter zero
0              No longer used, enter zero
0              No longer used, enter zero
-2.19          Angle of attack for zero Cn for linear Cn curve (deg)
5.97764        Cn slope for zero lift for linear Cn curve (1/rad)
-0.8340        Cn at stall value for positive angle of attack for linear Cn curve
-0.8483        Cn at stall value for negative angle of attack for linear Cn curve
0.30           Angle of attack for minimum CD (deg)
0.0087         Minimum CD value
   -180.00   -0.0637    0.0060
   -179.00   -0.0043    0.0065
   -178.00    0.0440    0.0080
   -177.00    0.0835    0.0106
   -176.00    0.1167    0.0141
   -175.00    0.1459    0.0187
   -174.00    0.1726    0.0242
   -173.00    0.1978    0.0307
   -172.00    0.2222    0.0382
   -171.00    0.2460    0.0467
   -170.00    0.2695    0.0562
   -169.00    0.2926    0.0665
   -168.00    0.3154    0.0779
   -167.00    0.3378    0.0901
   -166.00    0.3597    0.1032
   -165.00    0.3811    0.1173
   -164.00    0.4020    0.1322
   -163.00    0.4223    0.1479
   -162.00    0.4419    0.1645
   -161.00    0.4607    0.1818
   -160.00    0.4789    0.2000
   -159.00    0.4962    0.2189
   -158.00    0.5128    0.2386
   -157.00    0.5284    0.2590
   -156.00    0.5433    0.2801
   -155.00    0.5572    0.3018
   -154.00    0.5702    0.3242
   -153.00    0.5823    0.3472
   -152.00    0.5934    0.3707
   -151.00    0.6037    0.3948
   -150.00    0.6129    0.4195
   -149.00    0.6212    0.4446
   -148.00    0.6286    0.4702
   -147.00    0.6350    0.4962
   -146.00    0.6404    0.5226
   -145.00    0.6449    0.5494
   -144.00    0.6484    0.5765
   -143.00    0.6510    0.6039
   -142.00    0.6527    0.6316
   -141.00    0.6534    0.6595
   -140.00    0.6532    0.6876
   -139.00    0.6521    0.7159
   -138.00    0.6502    0.7443
   -137.00    0.6473    0.7728
   -136.00    0.6436    0.8013
   -135.00    0.6391    0.8299
   -134.00    0.6337    0.8585
   -133.00    0.6275    0.8870
   -132.00    0.6205    0.9154
   -131.00    0.6128    0.9438
   -130.00    0.6043    0.9719
   -129.00    0.5951    0.9999
   -128.00    0.5852    1.0277
   -127.00    0.5746    1.0553
   -126.00    0.5633    1.0825
   -125.00    0.5514    1.1095
   -124.00    0.5389    1.1360
   -123.00    0.5258    1.1623
   -122.00    0.5121    1.1881
   -121.00    0.4979    1.2134
   -120.00    0.4831    1.2383
   -119.00    0.4679    1.2627
   -118.00    0.4521    1.2865
   -117.00    0.4325    1.3098
   -116.00    0.4159    1.3325
   -115.00    0.3989    1.3546
   -114.00    0.3815    1.3760
   -113.00    0.3638    1.3968
   -112.00    0.3457    1.4169
   -111.00    0.3273    1.4363
   -110.00    0.3086    1.4549
   -109.00    0.2896    1.4727
   -108.00    0.2704    1.4898
   -107.00    0.2509    1.5061
   -106.00    0.2313    1.5215
   -105.00    0.2115    1.5361
   -104.00    0.1915    1.5499
   -103.00    0.1714    1.5627
   -102.00    0.1512    1.5747
   -101.00    0.1308    1.5858
   -100.00    0.1104    1.5959
    -99.00    0.0900    1.6051
    -98.00    0.0695    1.6134
    -97.00    0.0490    1.6207
    -96.00    0.0285    1.6270
    -95.00    0.0080    1.6324
    -94.00   -0.0125    1.6368
    -93.00   -0.0329    1.6403
    -92.00   -0.0532    1.6427
    -91.00   -0.0735    1.6442
    -90.00   -0.0936    1.6446
    -89.00   -0.1136    1.6441
    -88.00   -0.1334    1.6426
    -87.00   -0.1532    1.6400
    -86.00   -0.1727    1.6366
    -85.00   -0.1920    1.6321
    -84.00   -0.2112    1.6266
    -83.00   -0.2301    1.6202
    -82.00   -0.2488    1.6128
    -81.00   -0.2672    1.6044
    -80.00   -0.2854    1.5952
    -79.00   -0.3032    1.5849
    -78.00   -0.3208    1.5738
    -77.00   -0.3381    1.5617
    -76.00   -0.3551    1.5488
    -75.00   -0.3717    1.5350
    -74.00   -0.3880    1.5203
    -73.00   -0.4039    1.5047
    -72.00   -0.4195    1.4884
    -71.00   -0.4347    1.4712
    -70.00   -0.4494    1.4532
    -69.00   -0.4638    1.4345
    -68.00   -0.4777    1.4150
    -67.00   -0.4912    1.3948
    -66.00   -0.5043    1.3739
    -65.00   -0.5169    1.3523
    -64.00   -0.5290    1.3301
    -63.00   -0.5407    1.3073
    -62.00   -0.5519    1.2839
    -61.00   -0.5626    1.2598
    -60.00   -0.5727    1.2353
    -59.00   -0.5824    1.2102
    -58.00   -0.5916    1.1847
    -57.00   -0.6002    1.1587
    -56.00   -0.6083    1.1323
    -55.00   -0.6159    1.1055
    -54.00   -0.6229    1.0783
    -53.00   -0.6294    1.0508
    -52.00   -0.6354    1.0230
    -51.00   -0.6408    0.9950
    -50.00   -0.6457    0.9667
    -49.00   -0.6500    0.9382
    -48.00   -0.6538    0.9095
    -47.00   -0.6571    0.8807
    -46.00   -0.6599    0.8518
    -45.00   -0.6622    0.8228
    -44.00   -0.6640    0.7938
    -43.00   -0.6653    0.7648
    -42.00   -0.6662    0.7358
    -41.00   -0.6667    0.7068
    -40.00   -0.6668    0.6779
    -39.00   -0.6665    0.6491
    -38.00   -0.6660    0.6205
    -37.00   -0.6652    0.5921
    -36.00   -0.6643    0.5638
    -35.00   -0.6634    0.5357
    -34.00   -0.6624    0.5079
    -33.00   -0.6616    0.4804
    -32.00   -0.6611    0.4531
    -31.00   -0.6609    0.4262
    -30.00   -0.6615    0.3995
    -29.00   -0.6628    0.3732
    -28.00   -0.6653    0.3472
    -27.00   -0.6691    0.3216
    -26.00   -0.6747    0.2964
    -25.00   -0.6823    0.2715
    -24.00   -0.6925    0.2470
    -23.00   -0.7056    0.2230
    -22.00   -0.7219    0.1994
    -21.00   -0.7418    0.1763
    -20.00   -0.7653    0.1538
    -19.00   -0.7921    0.1321
    -18.00   -0.8210    0.1114
    -17.00   -0.8504    0.0920
    -16.00   -0.8772    0.0742
    -15.00   -0.8976    0.0584
    -14.00   -0.9068    0.0451
    -13.00   -0.9003    0.0345
    -12.00   -0.8750    0.0265
    -11.00   -0.8296    0.0210
    -10.00   -0.8582    0.0181
     -9.90   -0.8434    0.0180
     -9.80   -0.8307    0.0176
     -9.70   -0.8167    0.0174
     -9.60   -0.8019    0.0172
     -9.50   -0.7867    0.0170
     -9.40   -0.7774    0.0168
     -9.30   -0.7639    0.0167
     -9.20   -0.7508    0.0164
     -9.10   -0.7375    0.0162
     -9.00   -0.7236    0.0160
     -8.90   -0.7093    0.0158
     -8.80   -0.6947    0.0156
     -8.70   -0.6801    0.0155
     -8.60   -0.6728    0.0153
     -8.50   -0.6618    0.0151
     -8.40   -0.6494    0.0149
     -8.30   -0.6364    0.0148
     -8.10   -0.6116    0.0144
     -8.00   -0.6044    0.0143
     -7.90   -0.5939    0.0141
     -7.80   -0.5822    0.0140
     -7.70   -0.5702    0.0138
     -7.60   -0.5603    0.0137
     -7.50   -0.5521    0.0135
     -7.40   -0.5418    0.0134
     -7.30   -0.5305    0.0133
     -7.20   -0.5200    0.0131
     -7.10   -0.5108    0.0130
     -7.00   -0.5013    0.0129
     -6.90   -0.4907    0.0128
     -6.80   -0.4805    0.0127
     -6.70   -0.4698    0.0125
     -6.60   -0.4607    0.0124
     -6.50   -0.4503    0.0124
     -6.40   -0.4404    0.0122
     -6.30   -0.4297    0.0121
     -6.20   -0.4195    0.0120
     -6.10   -0.4097    0.0119
     -6.00   -0.3997    0.0118
     -5.90   -0.3889    0.0117
     -5.80   -0.3782    0.0116
     -5.70   -0.3687    0.0115
     -5.60   -0.3584    0.0114
     -5.40   -0.3371    0.0112
     -5.30   -0.3271    0.0111
     -5.10   -0.3061    0.0110
     -5.00   -0.2954    0.0109
     -4.90   -0.2851    0.0108
     -4.80   -0.2749    0.0107
     -4.70   -0.2641    0.0107
     -4.60   -0.2534    0.0106
     -4.50   -0.2433    0.0105
     -4.40   -0.2326    0.0105
     -4.30   -0.2220    0.0104
     -4.20   -0.2115    0.0103
     -4.00   -0.1905    0.0102
     -3.90   -0.1797    0.0102
     -3.80   -0.1693    0.0101
     -3.70   -0.1588    0.0100
     -3.50   -0.1376    0.0099
     -3.40   -0.1270    0.0099
     -3.30   -0.1165    0.0098
     -3.20   -0.1059    0.0098
     -3.10   -0.0952    0.0097
     -3.00   -0.0849    0.0097
     -2.80   -0.0638    0.0096
     -2.70   -0.0531    0.0096
     -2.60   -0.0428    0.0095
     -2.50   -0.0322    0.0095
     -2.40   -0.0218    0.0094
     -2.30   -0.0113    0.0094
     -2.20   -0.0010    0.0093
     -2.00    0.0198    0.0092
     -1.80    0.0405    0.0092
     -1.70    0.0509    0.0091
     -1.60    0.0613    0.0091
     -1.50    0.0715    0.0090
     -1.40    0.0818    0.0090
     -1.30    0.0922    0.0090
     -1.20    0.1024    0.0089
     -1.10    0.1127    0.0089
     -1.00    0.1230    0.0089
     -0.90    0.1334    0.0089
     -0.80    0.1438    0.0088
     -0.70    0.1539    0.0088
     -0.60    0.1643    0.0088
     -0.50    0.1749    0.0088
     -0.40    0.1850    0.0088
     -0.30    0.1953    0.0088
     -0.20    0.2057    0.0088
     -0.10    0.2162    0.0087
      0.00    0.2266    0.0087
      0.10    0.2367    0.0088
      0.30    0.2577    0.0087
      0.40    0.2681    0.0087
      0.50    0.2783    0.0088
      0.60    0.2887    0.0088
      0.70    0.2993    0.0087
      0.80    0.3096    0.0087
      0.90    0.3199    0.0088
      1.00    0.3301    0.0088
      1.10    0.3408    0.0088
      1.20    0.3512    0.0088
      1.40    0.3716    0.0088
      1.50    0.3821    0.0089
      1.60    0.3925    0.0089
      1.70    0.4030    0.0089
      1.80    0.4132    0.0089
      1.90    0.4233    0.0089
      2.00    0.4336    0.0090
      2.10    0.4441    0.0090
      2.20    0.4544    0.0090
      2.30    0.4646    0.0090
      2.40    0.4746    0.0091
      2.50    0.4849    0.0091
      2.60    0.4953    0.0092
      2.70    0.5057    0.0092
      2.80    0.5157    0.0093
      2.90    0.5259    0.0093
      3.00    0.5360    0.0094
      3.10    0.5468    0.0094
      3.20    0.5574    0.0095
      3.30    0.5678    0.0095
      3.40    0.5788    0.0096
      3.50    0.5886    0.0097
      3.60    0.6014    0.0098
      3.70    0.6128    0.0098
      3.80    0.6246    0.0099
      3.90    0.6378    0.0100
      4.00    0.6494    0.0101
      4.10    0.6632    0.0101
      4.20    0.6782    0.0102
      4.30    0.6926    0.0103
      4.40    0.7047    0.0104
      4.50    0.7210    0.0105
      4.60    0.7382    0.0106
      4.70    0.7551    0.0107
      4.80    0.7714    0.0108
      4.90    0.7856    0.0109
      5.00    0.8039    0.0110
      5.10    0.8214    0.0110
      5.20    0.8379    0.0111
      5.40    0.8683    0.0113
      5.50    0.8844    0.0114
      5.60    0.9002    0.0115
      5.70    0.9154    0.0116
      5.80    0.9313    0.0116
      5.90    0.9467    0.0117
      6.00    0.9621    0.0118
      6.10    0.9777    0.0119
      6.20    0.9935    0.0120
      6.30    1.0015    0.0120
      6.40    1.0066    0.0121
      6.50    1.0122    0.0122
      6.60    1.0184    0.0122
      6.70    1.0240    0.0123
      6.80    1.0288    0.0123
      6.90    1.0333    0.0124
      7.00    1.0395    0.0125
      7.10    1.0450    0.0126
      7.20    1.0497    0.0126
      7.30    1.0537    0.0127
      7.40    1.0596    0.0128
      7.50    1.0651    0.0129
      7.60    1.0698    0.0130
      7.70    1.0736    0.0131
      7.80    1.0792    0.0132
      7.90    1.0849    0.0133
      8.00    1.0897    0.0134
      8.10    1.0934    0.0135
      8.20    1.0981    0.0136
      8.30    1.1029    0.0137
      8.40    1.1069    0.0138
      8.50    1.1102    0.0139
      8.60    1.1155    0.0140
      8.70    1.1215    0.0141
      8.80    1.1268    0.0143
      8.90    1.1313    0.0145
      9.00    1.1380    0.0146
      9.10    1.1446    0.0147
      9.20    1.1502    0.0149
      9.30    1.1553    0.0151
      9.40    1.1627    0.0152
      9.50    1.1691    0.0154
      9.60    1.1743    0.0156
      9.70    1.1807    0.0158
      9.80    1.1876    0.0160
      9.90    1.1935    0.0162
     10.10    1.2057    0.0167
     10.20    1.2120    0.0169
     10.30    1.2171    0.0171
     10.40    1.2229    0.0174
     10.50    1.2296    0.0176
     10.60    1.2351    0.0179
     10.70    1.2394    0.0182
     10.80    1.2462    0.0184
     10.90    1.2522    0.0187
     11.00    1.2571    0.0190
     11.10    1.2616    0.0193
     11.20    1.2682    0.0196
     11.30    1.2736    0.0199
     11.40    1.2778    0.0203
     11.50    1.2826    0.0206
     11.60    1.2885    0.0209
     11.70    1.2933    0.0213
     11.80    1.2970    0.0217
     11.90    1.3017    0.0221
     12.00    1.3072    0.0224
     12.10    1.3118    0.0228
     12.20    1.3152    0.0233
     12.30    1.3189    0.0238
     12.40    1.3244    0.0241
     12.50    1.3288    0.0246
     12.60    1.3322    0.0251
     12.70    1.3345    0.0257
     12.80    1.3392    0.0261
     12.90    1.3438    0.0266
     13.00    1.3474    0.0271
     13.10    1.3500    0.0277
     13.20    1.3515    0.0284
     13.30    1.3562    0.0289
     13.40    1.3603    0.0294
     13.50    1.3634    0.0300
     13.60    1.3655    0.0306
     13.70    1.3667    0.0314
     13.80    1.3689    0.0321
     13.90    1.3730    0.0327
     14.00    1.3763    0.0333
     14.10    1.3786    0.0340
     14.20    1.3802    0.0348
     14.30    1.3808    0.0357
     14.40    1.3803    0.0367
     14.50    1.3842    0.0373
     14.60    1.3872    0.0380
     14.70    1.3896    0.0387
     14.80    1.3911    0.0396
     14.90    1.3919    0.0405
     15.00    1.3918    0.0416
     15.10    1.3904    0.0427
     15.20    1.3918    0.0436
     15.30    1.3947    0.0444
     15.40    1.3969    0.0453
     15.50    1.3983    0.0462
     15.60    1.3988    0.0472
     15.70    1.3988    0.0483
     15.80    1.3978    0.0495
     15.90    1.3960    0.0508
     16.00    1.3928    0.0523
     16.10    1.3954    0.0531
     16.20    1.3973    0.0541
     16.30    1.3984    0.0551
     16.40    1.3990    0.0562
     16.50    1.3992    0.0573
     16.60    1.3987    0.0586
     16.70    1.3977    0.0598
     16.80    1.3962    0.0612
     16.90    1.3936    0.0627
     17.00    1.3905    0.0642
     17.10    1.3874    0.0657
     17.20    1.3886    0.0668
     17.30    1.3895    0.0679
     17.40    1.3899    0.0691
     17.50    1.3897    0.0704
     17.60    1.3895    0.0716
     17.70    1.3890    0.0729
     17.80    1.3877    0.0743
     17.90    1.3862    0.0758
     18.00    1.3845    0.0772
     18.10    1.3818    0.0788
     18.20    1.3788    0.0804
     18.30    1.3754    0.0821
     18.40    1.3729    0.0836
     18.50    1.3730    0.0849
     18.60    1.3731    0.0862
     18.70    1.3729    0.0875
     18.80    1.3721    0.0889
     18.90    1.3713    0.0903
     19.00    1.3706    0.0917
     19.10    1.3697    0.0931
     19.20    1.3680    0.0947
     19.30    1.3665    0.0962
     19.40    1.3649    0.0977
     19.50    1.3628    0.0993
     19.60    1.3603    0.1009
     19.70    1.3580    0.1025
     19.80    1.3560    0.1040
     19.90    1.3549    0.1053
     20.00    1.3541    0.1068
     21.00    1.3208    0.1425
     22.00    1.2976    0.1645
     23.00    1.2751    0.1876
     24.00    1.2542    0.2118
     25.00    1.2352    0.2369
     26.00    1.2184    0.2628
     27.00    1.2039    0.2893
     28.00    1.1916    0.3165
     29.00    1.1815    0.3442
     30.00    1.1732    0.3724
     31.00    1.1667    0.4009
     32.00    1.1618    0.4299
     33.00    1.1581    0.4592
     34.00    1.1555    0.4888
     35.00    1.1538    0.5187
     36.00    1.1529    0.5488
     37.00    1.1524    0.5792
     38.00    1.1523    0.6097
     39.00    1.1523    0.6403
     40.00    1.1525    0.6711
     41.00    1.1526    0.7020
     42.00    1.1525    0.7329
     43.00    1.1521    0.7639
     44.00    1.1514    0.7949
     45.00    1.1502    0.8258
     46.00    1.1485    0.8567
     47.00    1.1461    0.8874
     48.00    1.1432    0.9181
     49.00    1.1394    0.9486
     50.00    1.1350    0.9789
     51.00    1.1297    1.0089
     52.00    1.1235    1.0388
     53.00    1.1165    1.0683
     54.00    1.1085    1.0975
     55.00    1.0996    1.1263
     56.00    1.0898    1.1548
     57.00    1.0789    1.1829
     58.00    1.0670    1.2105
     59.00    1.0542    1.2376
     60.00    1.0403    1.2642
     61.00    1.0253    1.2903
     62.00    1.0094    1.3158
     63.00    0.9923    1.3407
     64.00    0.9743    1.3649
     65.00    0.9552    1.3885
     66.00    0.9351    1.4115
     67.00    0.9140    1.4337
     68.00    0.8918    1.4552
     69.00    0.8687    1.4759
     70.00    0.8446    1.4958
     71.00    0.8195    1.5149
     72.00    0.7935    1.5332
     73.00    0.7666    1.5506
     74.00    0.7388    1.5672
     75.00    0.7101    1.5828
     76.00    0.6806    1.5976
     77.00    0.6502    1.6114
     78.00    0.6191    1.6243
     79.00    0.5872    1.6362
     80.00    0.5546    1.6471
     81.00    0.5214    1.6570
     82.00    0.4874    1.6660
     83.00    0.4529    1.6739
     84.00    0.4178    1.6808
     85.00    0.3822    1.6867
     86.00    0.3462    1.6915
     87.00    0.3096    1.6954
     88.00    0.2727    1.6981
     89.00    0.2355    1.6998
     90.00    0.1979    1.7005
     91.00    0.1601    1.7001
     92.00    0.1221    1.6987
     93.00    0.0840    1.6962
     94.00    0.0457    1.6927
     95.00    0.0074    1.6882
     96.00   -0.0309    1.6826
     97.00   -0.0691    1.6760
     98.00   -0.1073    1.6683
     99.00   -0.1453    1.6597
    100.00   -0.1831    1.6501
    101.00   -0.2206    1.6395
    102.00   -0.2578    1.6279
    103.00   -0.2947    1.6154
    104.00   -0.3311    1.6019
    105.00   -0.3671    1.5875
    106.00   -0.4026    1.5722
    107.00   -0.4375    1.5560
    108.00   -0.4717    1.5389
    109.00   -0.5054    1.5210
    110.00   -0.5383    1.5023
    111.00   -0.5704    1.4828
    112.00   -0.6129    1.4625
    113.00   -0.6431    1.4415
    114.00   -0.6725    1.4197
    115.00   -0.7010    1.3973
    116.00   -0.7285    1.3742
    117.00   -0.7549    1.3504
    118.00   -0.7804    1.3261
    119.00   -0.8047    1.3011
    120.00   -0.8279    1.2756
    121.00   -0.8500    1.2496
    122.00   -0.8709    1.2231
    123.00   -0.8906    1.1962
    124.00   -0.9090    1.1688
    125.00   -0.9261    1.1411
    126.00   -0.9420    1.1130
    127.00   -0.9566    1.0846
    128.00   -0.9698    1.0559
    129.00   -0.9816    1.0270
    130.00   -0.9921    0.9979
    131.00   -1.0013    0.9685
    132.00   -1.0090    0.9391
    133.00   -1.0154    0.9096
    134.00   -1.0203    0.8799
    135.00   -1.0238    0.8503
    136.00   -1.0260    0.8207
    137.00   -1.0267    0.7911
    138.00   -1.0261    0.7616
    139.00   -1.0240    0.7322
    140.00   -1.0206    0.7030
    141.00   -1.0158    0.6739
    142.00   -1.0097    0.6451
    143.00   -1.0022    0.6165
    144.00   -0.9934    0.5882
    145.00   -0.9833    0.5603
    146.00   -0.9720    0.5327
    147.00   -0.9594    0.5055
    148.00   -0.9456    0.4788
    149.00   -0.9307    0.4525
    150.00   -0.9146    0.4267
    151.00   -0.8975    0.4014
    152.00   -0.8792    0.3767
    153.00   -0.8600    0.3526
    154.00   -0.8399    0.3290
    155.00   -0.8189    0.3062
    156.00   -0.7971    0.2840
    157.00   -0.7745    0.2624
    158.00   -0.7513    0.2416
    159.00   -0.7275    0.2216
    160.00   -0.7033    0.2023
    161.00   -0.6788    0.1838
    162.00   -0.6540    0.1662
    163.00   -0.6293    0.1493
    164.00   -0.6048    0.1334
    165.00   -0.5808    0.1183
    166.00   -0.5575    0.1041
    167.00   -0.5354    0.0908
    168.00   -0.5149    0.0784
    169.00   -0.4964    0.0670
    170.00   -0.4803    0.0565
    171.00   -0.4666    0.0469
    172.00   -0.4548    0.0384
    173.00   -0.4427    0.0308
    174.00   -0.4261    0.0243
    175.00   -0.3994    0.0187
    176.00   -0.3573    0.0141
    177.00   -0.2984    0.0106
    178.00   -0.2262    0.0080
    179.00   -0.1464    0.0065
    180.00   -0.0637    0.0060
    180.00   -0.0637    0.0060
